<?xml version="1.0" encoding="UTF-8"?>

<!-- generated on 2021-06-22 16:37:31 by Eclipse SUMO netconvert Version 1.9.1
<configuration xmlns:xsi="http://www.w3.org/2001/XMLSchema-instance" xsi:noNamespaceSchemaLocation="http://sumo.dlr.de/xsd/netconvertConfiguration.xsd">

    <input>
        <type-files value="C:\Program%20Files%20(x86)\Eclipse\Sumo\data\typemap\osmNetconvert.typ.xml,C:\Program%20Files%20(x86)\Eclipse\Sumo\data\typemap\osmNetconvertShips.typ.xml"/>
        <osm-files value="osm_bbox.osm.xml"/>
    </input>

    <output>
        <output-file value="osm.net.xml"/>
        <output.street-names value="true"/>
        <output.original-names value="true"/>
    </output>

    <projection>
        <proj.utm value="true"/>
    </projection>

    <processing>
        <geometry.remove value="true"/>
        <roundabouts.guess value="true"/>
    </processing>

    <tls_building>
        <tls.discard-simple value="true"/>
        <tls.join value="true"/>
        <tls.guess-signals value="true"/>
        <tls.default-type value="actuated"/>
    </tls_building>

    <ramp_guessing>
        <ramps.guess value="true"/>
    </ramp_guessing>

    <junctions>
        <junctions.join value="true"/>
        <junctions.corner-detail value="5"/>
    </junctions>

    <report>
        <verbose value="true"/>
        <aggregate-warnings value="5"/>
    </report>

</configuration>
-->

<net version="1.9" junctionCornerDetail="5" limitTurnSpeed="5.50" xmlns:xsi="http://www.w3.org/2001/XMLSchema-instance" xsi:noNamespaceSchemaLocation="http://sumo.dlr.de/xsd/net_file.xsd">

    <location netOffset="-266017.60,-3458835.87" convBoundary="0.00,0.00,22771.52,15398.29" origBoundary="120.540777,31.243992,120.781445,31.381432" projParameter="+proj=utm +zone=51 +ellps=WGS84 +datum=WGS84 +units=m +no_defs"/>

    <type id="highway.bridleway" priority="1" numLanes="1" speed="2.78" allow="pedestrian" oneway="1" width="2.00"/>
    <type id="highway.bus_guideway" priority="1" numLanes="1" speed="27.78" allow="bus" oneway="1"/>
    <type id="highway.cycleway" priority="1" numLanes="1" speed="8.33" allow="bicycle" oneway="0" width="1.00"/>
    <type id="highway.footway" priority="1" numLanes="1" speed="2.78" allow="pedestrian" oneway="1" width="2.00"/>
    <type id="highway.ford" priority="1" numLanes="1" speed="2.78" allow="army" oneway="0"/>
    <type id="highway.living_street" priority="2" numLanes="1" speed="2.78" disallow="tram rail_urban rail rail_electric rail_fast ship" oneway="0"/>
    <type id="highway.motorway" priority="14" numLanes="2" speed="39.44" allow="private emergency authority army vip passenger hov taxi bus coach delivery truck trailer motorcycle evehicle custom1 custom2" oneway="1"/>
    <type id="highway.motorway_link" priority="9" numLanes="1" speed="22.22" allow="private emergency authority army vip passenger hov taxi bus coach delivery truck trailer motorcycle evehicle custom1 custom2" oneway="1"/>
    <type id="highway.path" priority="1" numLanes="1" speed="2.78" allow="pedestrian bicycle" oneway="0" width="2.00"/>
    <type id="highway.pedestrian" priority="1" numLanes="1" speed="2.78" allow="pedestrian" oneway="1" width="2.00"/>
    <type id="highway.primary" priority="12" numLanes="2" speed="27.78" disallow="tram rail_urban rail rail_electric rail_fast ship" oneway="0"/>
    <type id="highway.primary_link" priority="7" numLanes="1" speed="22.22" disallow="tram rail_urban rail rail_electric rail_fast ship" oneway="0"/>
    <type id="highway.raceway" priority="15" numLanes="2" speed="83.33" allow="vip" oneway="0"/>
    <type id="highway.residential" priority="3" numLanes="1" speed="13.89" disallow="tram rail_urban rail rail_electric rail_fast ship" oneway="0"/>
    <type id="highway.secondary" priority="11" numLanes="1" speed="27.78" disallow="tram rail_urban rail rail_electric rail_fast ship" oneway="0"/>
    <type id="highway.secondary_link" priority="6" numLanes="1" speed="22.22" disallow="tram rail_urban rail rail_electric rail_fast ship" oneway="0"/>
    <type id="highway.service" priority="1" numLanes="1" speed="5.56" allow="pedestrian delivery bicycle" oneway="0"/>
    <type id="highway.stairs" priority="1" numLanes="1" speed="1.39" allow="pedestrian" oneway="1" width="2.00"/>
    <type id="highway.step" priority="1" numLanes="1" speed="1.39" allow="pedestrian" oneway="1" width="2.00"/>
    <type id="highway.steps" priority="1" numLanes="1" speed="1.39" allow="pedestrian" oneway="1" width="2.00"/>
    <type id="highway.tertiary" priority="10" numLanes="1" speed="22.22" disallow="tram rail_urban rail rail_electric rail_fast ship" oneway="0"/>
    <type id="highway.tertiary_link" priority="5" numLanes="1" speed="22.22" disallow="tram rail_urban rail rail_electric rail_fast ship" oneway="0"/>
    <type id="highway.track" priority="1" numLanes="1" speed="5.56" allow="pedestrian motorcycle moped bicycle" oneway="0"/>
    <type id="highway.trunk" priority="13" numLanes="2" speed="27.78" disallow="pedestrian bicycle tram rail_urban rail rail_electric rail_fast ship" oneway="0"/>
    <type id="highway.trunk_link" priority="8" numLanes="1" speed="22.22" disallow="pedestrian bicycle tram rail_urban rail rail_electric rail_fast ship" oneway="0"/>
    <type id="highway.unclassified" priority="4" numLanes="1" speed="13.89" disallow="tram rail_urban rail rail_electric rail_fast ship" oneway="0"/>
    <type id="highway.unsurfaced" priority="1" numLanes="1" speed="8.33" disallow="tram rail_urban rail rail_electric rail_fast ship" oneway="0"/>
    <type id="railway.highspeed" priority="21" numLanes="1" speed="69.44" allow="rail_fast" oneway="1"/>
    <type id="railway.light_rail" priority="19" numLanes="1" speed="27.78" allow="rail_urban" oneway="1"/>
    <type id="railway.preserved" priority="16" numLanes="1" speed="27.78" allow="rail" oneway="1"/>
    <type id="railway.rail" priority="20" numLanes="1" speed="44.44" allow="rail" oneway="1"/>
    <type id="railway.subway" priority="18" numLanes="1" speed="27.78" allow="rail_urban" oneway="1"/>
    <type id="railway.tram" priority="17" numLanes="1" speed="13.89" allow="tram" oneway="1"/>
    <type id="route.ferry" priority="2" numLanes="1" speed="10.00" allow="ship" oneway="0" width="5.00"/>
    <type id="waterway.canal" priority="1" numLanes="1" speed="10.00" allow="ship" oneway="0" width="5.00"/>
    <type id="waterway.river" priority="1" numLanes="1" speed="10.00" allow="ship" oneway="0" width="7.00"/>

    <edge id=":1366247754_0" function="internal">
        <lane id=":1366247754_0_0" index="0" disallow="tram rail_urban rail rail_electric rail_fast ship" speed="22.22" length="14.40" shape="18789.70,3034.39 18785.82,3048.26"/>
    </edge>
    <edge id=":1366247754_1" function="internal">
        <lane id=":1366247754_1_0" index="0" disallow="tram rail_urban rail rail_electric rail_fast ship" speed="7.89" length="5.93" shape="18789.70,3034.39 18788.08,3038.04 18786.65,3039.35"/>
    </edge>
    <edge id=":1366247754_2" function="internal">
        <lane id=":1366247754_2_0" index="0" disallow="tram rail_urban rail rail_electric rail_fast ship" speed="3.65" length="2.34" shape="18789.70,3034.39 18788.61,3035.33 18787.73,3035.50"/>
    </edge>
    <edge id=":1366247754_9" function="internal">
        <lane id=":1366247754_9_0" index="0" disallow="tram rail_urban rail rail_electric rail_fast ship" speed="7.89" length="8.51" shape="18786.65,3039.35 18785.70,3040.22 18782.55,3040.92 18778.63,3040.14"/>
    </edge>
    <edge id=":1366247754_10" function="internal">
        <lane id=":1366247754_10_0" index="0" disallow="tram rail_urban rail rail_electric rail_fast ship" speed="3.65" length="2.34" shape="18787.73,3035.50 18787.07,3034.90 18786.62,3033.52"/>
    </edge>
    <edge id=":1366247754_3" function="internal">
        <lane id=":1366247754_3_0" index="0" disallow="tram rail_urban rail rail_electric rail_fast ship" speed="6.37" length="9.04" shape="18779.69,3037.12 18782.15,3037.61 18784.12,3037.17 18785.61,3035.81 18786.62,3033.52"/>
    </edge>
    <edge id=":1366247754_4" function="internal">
        <lane id=":1366247754_4_0" index="0" disallow="tram rail_urban rail rail_electric rail_fast ship" speed="8.23" length="14.29" shape="18779.69,3037.12 18783.23,3038.93 18785.43,3041.39 18786.29,3044.50 18785.82,3048.26"/>
    </edge>
    <edge id=":1366247754_5" function="internal">
        <lane id=":1366247754_5_0" index="0" disallow="tram rail_urban rail rail_electric rail_fast ship" speed="3.65" length="4.67" shape="18779.69,3037.12 18780.56,3038.28 18780.67,3039.17 18780.03,3039.79 18778.63,3040.14"/>
    </edge>
    <edge id=":1366247754_6" function="internal">
        <lane id=":1366247754_6_0" index="0" disallow="tram rail_urban rail rail_electric rail_fast ship" speed="6.77" length="9.37" shape="18782.74,3047.40 18783.04,3044.96 18782.45,3042.94 18780.98,3041.33 18778.63,3040.14"/>
    </edge>
    <edge id=":1366247754_7" function="internal">
        <lane id=":1366247754_7_0" index="0" disallow="tram rail_urban rail rail_electric rail_fast ship" speed="22.22" length="14.41" shape="18782.74,3047.40 18786.62,3033.52"/>
    </edge>
    <edge id=":1366247754_8" function="internal">
        <lane id=":1366247754_8_0" index="0" disallow="tram rail_urban rail rail_electric rail_fast ship" speed="3.65" length="2.34" shape="18782.74,3047.40 18783.83,3046.46 18784.71,3046.29"/>
    </edge>
    <edge id=":1366247754_11" function="internal">
        <lane id=":1366247754_11_0" index="0" disallow="tram rail_urban rail rail_electric rail_fast ship" speed="3.65" length="2.34" shape="18784.71,3046.29 18785.37,3046.89 18785.82,3048.26"/>
    </edge>
    <edge id=":1617107321_0" function="internal">
        <lane id=":1617107321_0_0" index="0" disallow="tram rail_urban rail rail_electric rail_fast ship" speed="22.22" length="14.55" shape="18100.43,2796.17 18086.80,2791.09"/>
    </edge>
    <edge id=":1617107321_1" function="internal">
        <lane id=":1617107321_1_0" index="0" disallow="tram rail_urban rail rail_electric rail_fast ship" speed="7.62" length="6.03" shape="18100.43,2796.17 18096.63,2794.07 18095.67,2792.69"/>
    </edge>
    <edge id=":1617107321_2" function="internal">
        <lane id=":1617107321_2_0" index="0" disallow="tram rail_urban rail rail_electric rail_fast ship" speed="3.65" length="2.34" shape="18100.43,2796.17 18099.60,2795.00 18099.51,2794.11"/>
    </edge>
    <edge id=":1617107321_9" function="internal">
        <lane id=":1617107321_9_0" index="0" disallow="tram rail_urban rail rail_electric rail_fast ship" speed="7.62" length="9.24" shape="18095.67,2792.69 18094.76,2791.37 18094.82,2788.09 18096.81,2784.22"/>
    </edge>
    <edge id=":1617107321_10" function="internal">
        <lane id=":1617107321_10_0" index="0" disallow="tram rail_urban rail rail_electric rail_fast ship" speed="3.65" length="2.34" shape="18099.51,2794.11 18100.17,2793.50 18101.57,2793.18"/>
    </edge>
    <edge id=":1617107321_3" function="internal">
        <lane id=":1617107321_3_0" index="0" disallow="tram rail_urban rail rail_electric rail_fast ship" speed="6.03" length="9.07" shape="18099.42,2786.08 18098.23,2788.38 18098.20,2790.33 18099.31,2791.93 18101.57,2793.18"/>
    </edge>
    <edge id=":1617107321_4" function="internal">
        <lane id=":1617107321_4_0" index="0" disallow="tram rail_urban rail rail_electric rail_fast ship" speed="9.06" length="14.70" shape="18099.42,2786.08 18096.59,2789.25 18093.55,2791.14 18090.29,2791.75 18086.80,2791.09"/>
    </edge>
    <edge id=":1617107321_5" function="internal">
        <lane id=":1617107321_5_0" index="0" disallow="tram rail_urban rail rail_electric rail_fast ship" speed="3.65" length="4.67" shape="18099.42,2786.08 18098.07,2786.59 18097.19,2786.46 18096.76,2785.67 18096.81,2784.22"/>
    </edge>
    <edge id=":1617107321_6" function="internal">
        <lane id=":1617107321_6_0" index="0" disallow="tram rail_urban rail rail_electric rail_fast ship" speed="7.74" length="10.50" shape="18087.90,2788.08 18090.29,2788.51 18092.58,2788.01 18094.75,2786.58 18096.81,2784.22"/>
    </edge>
    <edge id=":1617107321_7" function="internal">
        <lane id=":1617107321_7_0" index="0" disallow="tram rail_urban rail rail_electric rail_fast ship" speed="22.22" length="14.60" shape="18087.90,2788.08 18101.57,2793.18"/>
    </edge>
    <edge id=":1617107321_8" function="internal">
        <lane id=":1617107321_8_0" index="0" disallow="tram rail_urban rail rail_electric rail_fast ship" speed="3.65" length="2.34" shape="18087.90,2788.08 18088.75,2789.24 18088.85,2790.13"/>
    </edge>
    <edge id=":1617107321_11" function="internal">
        <lane id=":1617107321_11_0" index="0" disallow="tram rail_urban rail rail_electric rail_fast ship" speed="3.65" length="2.34" shape="18088.85,2790.13 18088.20,2790.74 18086.80,2791.09"/>
    </edge>
    <edge id=":2427289980_0" function="internal">
        <lane id=":2427289980_0_0" index="0" allow="ship" speed="10.00" length="18.11" width="5.00" shape="18502.03,2524.24 18495.85,2541.27"/>
    </edge>
    <edge id=":2427289980_1" function="internal">
        <lane id=":2427289980_1_0" index="0" allow="ship" speed="9.09" length="17.71" width="5.00" shape="18502.03,2524.24 18499.67,2527.76 18495.87,2530.34 18491.45,2531.63 18487.19,2531.28"/>
    </edge>
    <edge id=":2427289980_2" function="internal">
        <lane id=":2427289980_2_0" index="0" allow="ship" speed="4.56" length="7.30" width="5.00" shape="18502.03,2524.24 18500.23,2525.59 18498.84,2525.76 18497.87,2524.75 18497.32,2522.57"/>
    </edge>
    <edge id=":2427289980_3" function="internal">
        <lane id=":2427289980_3_0" index="0" allow="ship" speed="7.26" length="10.71" width="5.00" shape="18488.75,2526.53 18491.69,2527.07 18494.10,2526.59 18495.98,2525.09 18497.32,2522.57"/>
    </edge>
    <edge id=":2427289980_4" function="internal">
        <lane id=":2427289980_4_0" index="0" allow="ship" speed="8.90" length="17.71" width="5.00" shape="18488.75,2526.53 18492.31,2528.83 18494.95,2532.62 18496.27,2537.05 18495.85,2541.27"/>
    </edge>
    <edge id=":2427289980_5" function="internal">
        <lane id=":2427289980_5_0" index="0" allow="ship" speed="4.56" length="7.30" width="5.00" shape="18488.75,2526.53 18490.14,2528.30 18490.35,2529.69 18489.36,2530.68 18487.19,2531.28"/>
    </edge>
    <edge id=":2427289980_6" function="internal">
        <lane id=":2427289980_6_0" index="0" allow="ship" speed="7.06" length="10.53" width="5.00" shape="18491.16,2539.53 18491.77,2536.69 18491.32,2534.37 18489.79,2532.57 18487.19,2531.28"/>
    </edge>
    <edge id=":2427289980_7" function="internal">
        <lane id=":2427289980_7_0" index="0" allow="ship" speed="10.00" length="18.04" width="5.00" shape="18491.16,2539.53 18497.32,2522.57"/>
    </edge>
    <edge id=":2427289980_8" function="internal">
        <lane id=":2427289980_8_0" index="0" allow="ship" speed="4.56" length="7.30" width="5.00" shape="18491.16,2539.53 18492.98,2538.20 18494.37,2538.05 18495.33,2539.07 18495.85,2541.27"/>
    </edge>
    <edge id=":2427289993_0" function="internal">
        <lane id=":2427289993_0_0" index="0" allow="ship" speed="9.51" length="16.09" width="5.00" shape="18234.39,3253.99 18230.15,3254.43 18226.75,3256.04 18224.19,3258.81 18222.47,3262.75"/>
    </edge>
    <edge id=":2427289993_1" function="internal">
        <lane id=":2427289993_1_0" index="0" allow="ship" speed="10.00" length="22.26" width="5.00" shape="18234.39,3253.99 18229.51,3253.98 18223.27,3254.12 18217.02,3254.38 18212.15,3254.72"/>
    </edge>
    <edge id=":2427289993_2" function="internal">
        <lane id=":2427289993_2_0" index="0" allow="ship" speed="8.28" length="18.76" width="5.00" shape="18234.39,3253.99 18230.29,3252.43 18226.90,3248.78 18224.97,3244.18 18225.25,3239.79"/>
    </edge>
    <edge id=":2427289993_3" function="internal">
        <lane id=":2427289993_3_0" index="0" allow="ship" speed="4.56" length="7.30" width="5.00" shape="18234.39,3253.99 18232.56,3252.69 18231.97,3251.42 18232.63,3250.19 18234.55,3249.00"/>
    </edge>
    <edge id=":2427289993_4" function="internal">
        <lane id=":2427289993_4_0" index="0" allow="ship" speed="6.56" length="11.00" width="5.00" shape="18229.86,3241.72 18229.05,3244.82 18229.56,3247.06 18231.39,3248.45 18234.55,3249.00"/>
    </edge>
    <edge id=":2427289993_5" function="internal">
        <lane id=":2427289993_5_0" index="0" allow="ship" speed="10.00" length="22.29" width="5.00" shape="18229.86,3241.72 18228.09,3246.28 18225.96,3252.16 18223.94,3258.08 18222.47,3262.75"/>
    </edge>
    <edge id=":2427289993_6" function="internal">
        <lane id=":2427289993_6_0" index="0" allow="ship" speed="10.00" length="22.69" width="5.00" shape="18229.86,3241.72 18226.95,3246.15 18222.48,3250.20 18217.27,3253.26 18212.15,3254.72"/>
    </edge>
    <edge id=":2427289993_7" function="internal">
        <lane id=":2427289993_7_0" index="0" allow="ship" speed="4.56" length="7.30" width="5.00" shape="18229.86,3241.72 18227.98,3242.97 18226.59,3243.06 18225.68,3242.01 18225.25,3239.79"/>
    </edge>
    <edge id=":2427289993_8" function="internal">
        <lane id=":2427289993_8_0" index="0" allow="ship" speed="10.00" length="17.73" width="5.00" shape="18211.68,3249.74 18216.20,3248.77 18219.97,3246.79 18222.99,3243.79 18225.25,3239.79"/>
    </edge>
    <edge id=":2427289993_9" function="internal">
        <lane id=":2427289993_9_0" index="0" allow="ship" speed="10.00" length="22.89" width="5.00" shape="18211.68,3249.74 18216.65,3249.40 18223.10,3249.13 18229.56,3248.98 18234.55,3249.00"/>
    </edge>
    <edge id=":2427289993_10" function="internal">
        <lane id=":2427289993_10_0" index="0" allow="ship" speed="8.26" length="18.79" width="5.00" shape="18211.68,3249.74 18215.95,3250.79 18219.76,3254.01 18222.23,3258.36 18222.47,3262.75"/>
    </edge>
    <edge id=":2427289993_11" function="internal">
        <lane id=":2427289993_11_0" index="0" allow="ship" speed="4.56" length="7.30" width="5.00" shape="18211.68,3249.74 18213.66,3250.81 18214.40,3251.99 18213.90,3253.30 18212.15,3254.72"/>
    </edge>
    <edge id=":2427289993_12" function="internal">
        <lane id=":2427289993_12_0" index="0" allow="ship" speed="6.55" length="11.02" width="5.00" shape="18217.67,3261.36 18218.12,3258.18 18217.35,3256.01 18215.36,3254.86 18212.15,3254.72"/>
    </edge>
    <edge id=":2427289993_13" function="internal">
        <lane id=":2427289993_13_0" index="0" allow="ship" speed="10.00" length="22.87" width="5.00" shape="18217.67,3261.36 18219.16,3256.61 18221.25,3250.51 18223.44,3244.43 18225.25,3239.79"/>
    </edge>
    <edge id=":2427289993_14" function="internal">
        <lane id=":2427289993_14_0" index="0" allow="ship" speed="10.00" length="22.07" width="5.00" shape="18217.67,3261.36 18220.15,3256.71 18224.32,3252.71 18229.38,3249.95 18234.55,3249.00"/>
    </edge>
    <edge id=":2427289993_15" function="internal">
        <lane id=":2427289993_15_0" index="0" allow="ship" speed="4.56" length="7.30" width="5.00" shape="18217.67,3261.36 18219.39,3259.91 18220.76,3259.65 18221.79,3260.60 18222.47,3262.75"/>
    </edge>
    <edge id=":2427290007_0" function="internal">
        <lane id=":2427290007_0_0" index="0" allow="ship" speed="4.56" length="7.30" width="5.00" shape="18046.25,3797.29 18044.51,3798.72 18043.13,3798.95 18042.12,3797.99 18041.47,3795.83"/>
    </edge>
    <edge id=":3535395438_0" function="internal">
        <lane id=":3535395438_0_0" index="0" disallow="tram rail_urban rail rail_electric rail_fast ship" speed="6.56" length="9.09" shape="19115.68,3036.20 19113.23,3035.67 19111.20,3036.03 19109.58,3037.29 19108.37,3039.44"/>
    </edge>
    <edge id=":3535395438_1" function="internal">
        <lane id=":3535395438_1_0" index="0" disallow="tram rail_urban rail rail_electric rail_fast ship" speed="7.98" length="14.23" shape="19115.68,3036.20 19112.25,3034.34 19110.24,3031.83 19109.67,3028.67 19110.53,3024.86"/>
    </edge>
    <edge id=":3535395438_2" function="internal">
        <lane id=":3535395438_2_0" index="0" disallow="tram rail_urban rail rail_electric rail_fast ship" speed="3.65" length="4.67" shape="19115.68,3036.20 19114.83,3035.03 19114.73,3034.14 19115.39,3033.53 19116.79,3033.20"/>
    </edge>
    <edge id=":3535395438_3" function="internal">
        <lane id=":3535395438_3_0" index="0" disallow="tram rail_urban rail rail_electric rail_fast ship" speed="6.49" length="9.03" shape="19113.52,3026.00 19112.98,3028.42 19113.34,3030.42 19114.61,3032.02 19116.79,3033.20"/>
    </edge>
    <edge id=":3535395438_4" function="internal">
        <lane id=":3535395438_4_0" index="0" disallow="tram rail_urban rail rail_electric rail_fast ship" speed="27.78" length="14.39" shape="19113.52,3026.00 19108.37,3039.44"/>
    </edge>
    <edge id=":3535395438_5" function="internal">
        <lane id=":3535395438_5_0" index="0" disallow="tram rail_urban rail rail_electric rail_fast ship" speed="3.65" length="2.34" shape="19113.52,3026.00 19112.35,3026.84 19111.46,3026.93"/>
    </edge>
    <edge id=":3535395438_9" function="internal">
        <lane id=":3535395438_9_0" index="0" disallow="tram rail_urban rail rail_electric rail_fast ship" speed="3.65" length="2.34" shape="19111.46,3026.93 19110.85,3026.27 19110.53,3024.86"/>
    </edge>
    <edge id=":3535395438_6" function="internal">
        <lane id=":3535395438_6_0" index="0" disallow="tram rail_urban rail rail_electric rail_fast ship" speed="27.78" length="14.38" shape="19105.38,3038.29 19110.53,3024.86"/>
    </edge>
    <edge id=":3535395438_7" function="internal">
        <lane id=":3535395438_7_0" index="0" disallow="tram rail_urban rail rail_electric rail_fast ship" speed="8.05" length="5.88" shape="19105.38,3038.29 19107.27,3034.92 19108.86,3033.68"/>
    </edge>
    <edge id=":3535395438_8" function="internal">
        <lane id=":3535395438_8_0" index="0" disallow="tram rail_urban rail rail_electric rail_fast ship" speed="3.65" length="2.34" shape="19105.38,3038.29 19106.56,3037.46 19107.45,3037.37"/>
    </edge>
    <edge id=":3535395438_10" function="internal">
        <lane id=":3535395438_10_0" index="0" disallow="tram rail_urban rail rail_electric rail_fast ship" speed="8.05" length="8.32" shape="19108.86,3033.68 19109.81,3032.94 19112.98,3032.37 19116.79,3033.20"/>
    </edge>
    <edge id=":3535395438_11" function="internal">
        <lane id=":3535395438_11_0" index="0" disallow="tram rail_urban rail rail_electric rail_fast ship" speed="3.65" length="2.34" shape="19107.45,3037.37 19108.05,3038.03 19108.37,3039.44"/>
    </edge>
    <edge id=":3535395439_0" function="internal">
        <lane id=":3535395439_0_0" index="0" disallow="tram rail_urban rail rail_electric rail_fast ship" speed="13.89" length="14.49" shape="19330.32,3106.02 19325.36,3119.64"/>
    </edge>
    <edge id=":3535395439_1" function="internal">
        <lane id=":3535395439_1_0" index="0" disallow="tram rail_urban rail rail_electric rail_fast ship" speed="7.98" length="14.25" shape="19330.32,3106.02 19328.51,3109.49 19326.02,3111.52 19322.87,3112.13 19319.04,3111.31"/>
    </edge>
    <edge id=":3535395439_2" function="internal">
        <lane id=":3535395439_2_0" index="0" disallow="tram rail_urban rail rail_electric rail_fast ship" speed="3.65" length="4.67" shape="19330.32,3106.02 19329.16,3106.88 19328.28,3106.99 19327.66,3106.35 19327.30,3104.95"/>
    </edge>
    <edge id=":3535395439_3" function="internal">
        <lane id=":3535395439_3_0" index="0" disallow="tram rail_urban rail rail_electric rail_fast ship" speed="6.48" length="9.03" shape="19320.15,3108.31 19322.58,3108.83 19324.58,3108.44 19326.15,3107.15 19327.30,3104.95"/>
    </edge>
    <edge id=":3535395439_4" function="internal">
        <lane id=":3535395439_4_0" index="0" disallow="tram rail_urban rail rail_electric rail_fast ship" speed="8.00" length="14.24" shape="19320.15,3108.31 19323.59,3110.16 19325.61,3112.67 19326.20,3115.83 19325.36,3119.64"/>
    </edge>
    <edge id=":3535395439_5" function="internal">
        <lane id=":3535395439_5_0" index="0" disallow="tram rail_urban rail rail_electric rail_fast ship" speed="3.65" length="4.67" shape="19320.15,3108.31 19321.00,3109.47 19321.10,3110.36 19320.45,3110.97 19319.04,3111.31"/>
    </edge>
    <edge id=":3535395439_6" function="internal">
        <lane id=":3535395439_6_0" index="0" disallow="tram rail_urban rail rail_electric rail_fast ship" speed="6.50" length="9.06" shape="19322.36,3118.51 19322.89,3116.09 19322.52,3114.09 19321.23,3112.49 19319.04,3111.31"/>
    </edge>
    <edge id=":3535395439_7" function="internal">
        <lane id=":3535395439_7_0" index="0" disallow="tram rail_urban rail rail_electric rail_fast ship" speed="13.89" length="14.43" shape="19322.36,3118.51 19327.30,3104.95"/>
    </edge>
    <edge id=":3535395439_8" function="internal">
        <lane id=":3535395439_8_0" index="0" disallow="tram rail_urban rail rail_electric rail_fast ship" speed="3.65" length="4.67" shape="19322.36,3118.51 19323.53,3117.67 19324.42,3117.58 19325.03,3118.23 19325.36,3119.64"/>
    </edge>
    <edge id=":3547501949_0" function="internal">
        <lane id=":3547501949_0_0" index="0" disallow="tram rail_urban rail rail_electric rail_fast ship" speed="3.65" length="4.67" shape="19091.16,1996.96 19092.27,1996.04 19093.15,1995.89 19093.80,1996.50 19094.23,1997.88"/>
    </edge>
    <edge id=":3547536059_0" function="internal">
        <lane id=":3547536059_0_0" index="0" disallow="tram rail_urban rail rail_electric rail_fast ship" speed="6.60" length="9.15" shape="19193.97,2830.93 19191.49,2830.42 19189.43,2830.80 19187.81,2832.06 19186.60,2834.22"/>
    </edge>
    <edge id=":3547536059_1" function="internal">
        <lane id=":3547536059_1_0" index="0" disallow="tram rail_urban rail rail_electric rail_fast ship" speed="7.96" length="14.28" shape="19193.97,2830.93 19190.49,2829.11 19188.46,2826.62 19187.87,2823.46 19188.73,2819.62"/>
    </edge>
    <edge id=":3547536059_2" function="internal">
        <lane id=":3547536059_2_0" index="0" disallow="tram rail_urban rail rail_electric rail_fast ship" speed="3.65" length="4.67" shape="19193.97,2830.93 19193.11,2829.77 19192.99,2828.88 19193.64,2828.26 19195.04,2827.91"/>
    </edge>
    <edge id=":3547536059_3" function="internal">
        <lane id=":3547536059_3_0" index="0" disallow="tram rail_urban rail rail_electric rail_fast ship" speed="6.46" length="9.03" shape="19191.72,2820.76 19191.18,2823.18 19191.55,2825.18 19192.84,2826.76 19195.04,2827.91"/>
    </edge>
    <edge id=":3547536059_4" function="internal">
        <lane id=":3547536059_4_0" index="0" disallow="tram rail_urban rail rail_electric rail_fast ship" speed="27.78" length="14.40" shape="19191.72,2820.76 19186.60,2834.22"/>
    </edge>
    <edge id=":3547536059_5" function="internal">
        <lane id=":3547536059_5_0" index="0" disallow="tram rail_urban rail rail_electric rail_fast ship" speed="3.65" length="2.34" shape="19191.72,2820.76 19190.55,2821.60 19189.66,2821.69"/>
    </edge>
    <edge id=":3547536059_9" function="internal">
        <lane id=":3547536059_9_0" index="0" disallow="tram rail_urban rail rail_electric rail_fast ship" speed="3.65" length="2.34" shape="19189.66,2821.69 19189.05,2821.03 19188.73,2819.62"/>
    </edge>
    <edge id=":3547536059_6" function="internal">
        <lane id=":3547536059_6_0" index="0" disallow="tram rail_urban rail rail_electric rail_fast ship" speed="27.78" length="14.40" shape="19183.61,2833.08 19188.73,2819.62"/>
    </edge>
    <edge id=":3547536059_7" function="internal">
        <lane id=":3547536059_7_0" index="0" disallow="tram rail_urban rail rail_electric rail_fast ship" speed="8.08" length="5.88" shape="19183.61,2833.08 19185.49,2829.71 19187.08,2828.46"/>
    </edge>
    <edge id=":3547536059_8" function="internal">
        <lane id=":3547536059_8_0" index="0" disallow="tram rail_urban rail rail_electric rail_fast ship" speed="3.65" length="2.34" shape="19183.61,2833.08 19184.79,2832.24 19185.68,2832.15"/>
    </edge>
    <edge id=":3547536059_10" function="internal">
        <lane id=":3547536059_10_0" index="0" disallow="tram rail_urban rail rail_electric rail_fast ship" speed="8.08" length="8.35" shape="19187.08,2828.46 19188.01,2827.73 19191.20,2827.13 19195.04,2827.91"/>
    </edge>
    <edge id=":3547536059_11" function="internal">
        <lane id=":3547536059_11_0" index="0" disallow="tram rail_urban rail rail_electric rail_fast ship" speed="3.65" length="2.34" shape="19185.68,2832.15 19186.28,2832.81 19186.60,2834.22"/>
    </edge>
    <edge id=":3547536063_0" function="internal">
        <lane id=":3547536063_0_0" index="0" disallow="tram rail_urban rail rail_electric rail_fast ship" speed="3.65" length="4.67" shape="19398.56,2903.27 19399.71,2902.40 19400.60,2902.29 19401.22,2902.93 19401.57,2904.33"/>
    </edge>
    <edge id=":3556573593_0" function="internal">
        <lane id=":3556573593_0_0" index="0" disallow="tram rail_urban rail rail_electric rail_fast ship" speed="8.71" length="12.85" shape="18776.85,3939.27 18773.46,3939.65 18770.69,3940.90 18768.54,3943.03 18767.02,3946.04"/>
    </edge>
    <edge id=":3556573593_1" function="internal">
        <lane id=":3556573593_1_0" index="0" disallow="tram rail_urban rail rail_electric rail_fast ship" speed="18.05" length="17.02" shape="18776.85,3939.27 18759.84,3939.02"/>
    </edge>
    <edge id=":3556573593_2" function="internal">
        <lane id=":3556573593_2_0" index="0" disallow="tram rail_urban rail rail_electric rail_fast ship" speed="7.52" length="15.74" shape="18776.85,3939.27 18772.35,3938.56 18769.68,3936.60 18768.86,3933.40 18769.88,3928.95"/>
    </edge>
    <edge id=":3556573593_3" function="internal">