<?xml version="1.0" encoding="UTF-8"?>

<!-- generated on 2021-06-22 16:37:31 by Eclipse SUMO polyconvert Version 1.9.1
<configuration xmlns:xsi="http://www.w3.org/2001/XMLSchema-instance" xsi:noNamespaceSchemaLocation="http://sumo.dlr.de/xsd/polyconvertConfiguration.xsd">

    <input>
        <net-file value="osm.net.xml"/>
        <osm-files value="osm_bbox.osm.xml"/>
        <osm.keep-full-type value="true"/>
        <type-file value="C:\Program%20Files%20(x86)\Eclipse\Sumo\data\typemap\osmPolyconvert.typ.xml"/>
    </input>

    <output>
        <output-file value="osm.poly.xml"/>
    </output>

    <processing>
        <poi-layer-offset value="5"/>
    </processing>

    <report>
        <verbose value="true"/>
    </report>

</configuration>
-->

<additional xmlns:xsi="http://www.w3.org/2001/XMLSchema-instance" xsi:noNamespaceSchemaLocation="http://sumo.dlr.de/xsd/additional_file.xsd">
    <location netOffset="-266017.60,-3458835.87" convBoundary="0.00,0.00,22771.52,15398.29" origBoundary="120.540777,31.243992,120.781445,31.381432" projParameter="+proj=utm +zone=51 +ellps=WGS84 +datum=WGS84 +units=m +no_defs"/>

    <poly id="148635031" type="leisure.pitch" color="207,245,201" fill="1" layer="-2.00" shape="18589.441137,3156.912216 18613.203671,3073.414964 18637.629704,3043.632161 18673.738323,3038.133568 18701.323293,3062.524330 18705.055472,3099.127908 18691.728067,3143.312927 18679.823112,3183.453636 18657.668636,3206.923007 18624.956320,3211.231800 18596.586059,3189.885376 18589.441137,3156.912216"/>
    <poly id="148635103" type="leisure.pitch" color="207,245,201" fill="1" layer="-2.00" shape="18680.094662,2414.442193 18622.044992,2397.774505 18598.738022,2375.336985 18600.165812,2332.982003 18620.133232,2268.263329 18645.559808,2234.201027 18684.395202,2227.726195 18730.465700,2240.957292 18680.094662,2414.442193"/>
    <poly id="148635103#1" type="sport.running" color="79,230,125" fill="1" layer="-2.00" shape="18680.094662,2414.442193 18622.044992,2397.774505 18598.738022,2375.336985 18600.165812,2332.982003 18620.133232,2268.263329 18645.559808,2234.201027 18684.395202,2227.726195 18730.465700,2240.957292 18680.094662,2414.442193"/>
    <poly id="234483823" type="waterway.canal" color="181,209,209" fill="0" layer="-4.00" shape="18043.864043,3796.560377 18075.130071,3694.206465 18114.712912,3558.462087 18199.095468,3334.838474 18223.212653,3251.155298 18265.227412,3150.589079 18390.793947,2817.002061 18496.705942,2531.780775 18579.832991,2297.617232 18650.114894,2082.695747 18711.128179,1911.898840 18734.077934,1841.984016 18815.801093,1595.906493 18968.700906,1155.834537 19343.329836,1279.634325 19693.340187,1397.038726"/>
    <poly id="234483825" type="waterway.canal" color="181,209,209" fill="0" layer="-4.00" shape="18496.705942,2531.780775 18382.050993,2494.070201 18031.972266,2367.905446 17698.530802,2252.467635 17270.543546,2122.141205 17273.411140,2388.184184 17274.206958,2462.327215 17267.872465,2528.897486 17253.492371,2582.778419 17245.736131,2618.753725 17227.351125,2723.706170 17180.852596,2916.863873 17176.206226,2947.927994 17180.455303,2954.850285 17232.110893,2982.988801 17474.491399,3093.077705 17650.415794,3168.902742 17709.649271,3189.955016 17801.169969,3223.553202 17821.746241,3231.803406 17914.645863,3254.670641 18000.590639,3261.332516 18075.576533,3263.218016 18137.724862,3259.300723 18223.212653,3251.155298 18441.721452,3257.804567 18800.982927,3265.200480 19125.768563,3270.407872 19267.535428,3273.231795 19583.052553,3279.507900 19672.870476,3281.889466 19761.682419,3312.487076 19775.678379,3050.518346 19783.571541,2957.332460 19804.059918,2858.088887 19859.606104,2672.736864 19901.761938,2531.935640 19909.401913,2503.840355 19918.651663,2490.220012 19940.636364,2477.382800 19953.097143,2452.084230 20012.111603,2294.081092 20015.391388,2285.307444 20035.296515,2235.356215 20043.235614,2196.185651 20045.654783,2158.713586 20058.745992,2125.505199 20075.162898,2099.338791 20105.018752,2056.561033 20163.316820,1853.276036 20214.565179,1763.257243 20267.270073,1612.228102 20187.369665,1580.013220 20119.806652,1551.962240 20068.116925,1523.899101 19849.534528,1444.110682 19817.721315,1432.502822 19693.340187,1397.038726"/>
    <poly id="347140604" type="amenity.hospital" color="237,199,199" fill="1" layer="-1.00" shape="19135.449252,3164.307087 19197.246433,3187.455743 19230.260042,3102.362424 19166.415052,3079.255429 19135.449252,3164.307087"/>
    <poly id="347141316" type="building.commercial" color="255,230,230" fill="1" layer="-1.00" shape="19188.930707,3030.990111 19249.688700,3053.139945 19282.661774,2966.017939 19221.903379,2943.867893 19188.930707,3030.990111"/>
    <poly id="347141317" type="building.apartments" color="255,230,230" fill="1" layer="-1.00" shape="19300.912967,3208.728373 19380.203478,3237.620863 19415.161984,3147.408528 19335.840564,3117.495940 19300.912967,3208.728373"/>
    <poly id="350709831" type="amenity.university" color="237,199,199" fill="1" layer="-1.00" shape="18356.108812,3923.299420 18358.728618,3750.736598 18069.286945,3746.391091 18067.910788,3750.811705 18064.066574,3763.535302 18058.203815,3783.720764 18050.753896,3810.571714 18042.176088,3843.257927 18032.910839,3880.960654 18022.252384,3927.343591 18356.108812,3923.299420"/>
    <poly id="410754037" type="building.yes" color="255,230,230" fill="1" layer="-1.00" shape="18297.572429,2537.287172 18327.221167,2547.470667 18342.958376,2502.814219 18312.498760,2490.728460 18306.329383,2510.897765 18297.572429,2537.287172"/>
    <poly id="420038684" type="leisure.pitch" color="207,245,201" fill="1" layer="-2.00" shape="19250.029785,3169.539354 19272.824577,3105.096960 19311.091215,3118.955653 19287.889697,3184.016303 19250.029785,3169.539354"/>
    <poly id="420038684#1" type="sport.basketball" color="79,230,125" fill="1" layer="-2.00" shape="19250.029785,3169.539354 19272.824577,3105.096960 19311.091215,3118.955653 19287.889697,3184.016303 19250.029785,3169.539354"/>
    <poly id="420038796" type="landuse.residential" color="235,235,227" fill="1" layer="-3.00" shape="19295.502391,2982.248676 19326.282075,2887.529585 19385.455442,2907.172649 19351.619129,3002.453117 19295.502391,2982.248676"/>
    <poly id="420039057" type="amenity.university" color="237,199,199" fill="1" layer="-1.00" shape="19058.550117,2991.165284 19090.947277,2895.979670 18982.848395,2858.017954 18942.393679,2978.868571 19047.368262,3017.836518 19058.550117,2991.165284"/>
    <poly id="420039057#1" type="building.school" color="255,230,230" fill="1" layer="-1.00" shape="19058.550117,2991.165284 19090.947277,2895.979670 18982.848395,2858.017954 18942.393679,2978.868571 19047.368262,3017.836518 19058.550117,2991.165284"/>
    <poly id="430486602" type="building.yes" color="255,230,230" fill="1" layer="-1.00" shape="18579.356006,3427.888675 18579.716407,3407.838648 18657.598180,3409.324968 18658.414087,3373.848214 18579.776638,3373.153784 18580.138616,3352.715518 18671.936723,3353.151225 18669.236062,3429.128975 18579.356006,3427.888675"/>
    <poly id="430486887" type="building.yes" color="255,230,230" fill="1" layer="-1.00" shape="18168.341341,3520.635196 18210.262281,3521.304409 18219.390254,3492.633390 18269.481614,3493.134980 18280.294349,3521.895459 18313.026984,3523.264035 18314.647204,3502.888608 18295.327382,3482.943245 18288.932951,3469.853290 18287.486877,3449.540838 18290.889743,3440.819430 18315.653180,3427.089557 18316.118819,3400.127202 18276.255273,3399.925490 18266.939158,3419.449659 18242.397526,3418.933363 18235.846289,3398.215572 18210.286636,3398.230479 18168.341341,3520.635196"/>
    <poly id="443356104" type="amenity.university" color="237,199,199" fill="1" layer="-1.00" shape="17163.256036,2947.330154 17168.487654,2961.696919 17362.063509,3050.119360 17455.402574,3094.158909 17680.877080,3189.904224 17771.998455,3232.328308 17877.772100,3260.442779 17964.492459,3276.094867 18133.968513,3276.314945 18277.277386,2876.820754 17250.879329,2513.386853 17233.999562,2645.593919 17217.558772,2742.719865 17163.256036,2947.330154"/>
    <poly id="448602916" type="amenity.university" color="237,199,199" fill="1" layer="-1.00" shape="18788.674598,3231.268230 18990.647375,3232.965938 19055.566071,3048.791842 18824.422881,2970.569999 18752.060779,3220.915775 18788.674598,3231.268230"/>
    <poly id="449747147" type="building.commercial" color="255,230,230" fill="1" layer="-1.00" shape="17789.065069,2443.311566 17947.628629,2496.439809 17968.062712,2436.091176 17809.516762,2382.928931 17789.065069,2443.311566"/>
    <poly id="449751083" type="amenity.parking" color="184,184,179" fill="1" layer="-1.00" shape="17957.525099,2500.484416 17971.026954,2437.538695 18067.023968,2470.803529 18046.389738,2529.780680 17957.525099,2500.484416"/>
    <poly id="449857360" type="amenity.school" color="237,199,199" fill="1" layer="-1.00" shape="18564.379601,2400.786917 18920.447490,2507.214028 19036.306727,2125.210323 18702.160165,1984.799291 18564.379601,2400.786917"/>
    <poly id="498894653" type="leisure.park" color="207,245,201" fill="1" layer="-2.00" shape="18710.369714,3245.450923 18766.229601,3046.231513 18604.467091,2991.626791 18523.431808,3240.599593 18710.369714,3245.450923"/>
    <poly id="498894654" type="amenity.university" color="237,199,199" fill="1" layer="-1.00" shape="18523.431808,3240.599593 18250.919446,3234.603006 18372.935534,2912.390955 18604.467091,2991.626791 18523.431808,3240.599593"/>
    <poly id="498894655" type="amenity.university" color="237,199,199" fill="1" layer="-1.00" shape="18080.943458,3718.411051 18347.673198,3726.839205 18351.667534,3553.005933 18624.111836,3556.099879 18650.700534,3518.486305 18683.074526,3479.600671 18714.453145,3448.843559 18739.325980,3413.006822 18760.464464,3365.079151 18762.052504,3329.142944 18217.754107,3323.507615 18080.943458,3718.411051"/>
    <poly id="537061238" type="natural.water" color="181,209,209" fill="1" layer="-4.00" shape="18069.286945,3746.391091 18067.910788,3750.811705 18064.066574,3763.535302 18058.203815,3783.720764 18050.753896,3810.571714 18042.176088,3843.257927 18032.910839,3880.960654 18022.252384,3927.343591 18014.051441,3968.152325 18005.347439,4015.992478 17997.727224,4065.573937 17996.702158,4077.795918 17995.403533,4101.725292 17993.263024,4146.779535 17993.208349,4150.141452 17993.432088,4151.756241 17994.035565,4153.307759 17995.167879,4154.171802 17996.943123,4154.800785 17998.481401,4155.024249 18363.034234,4162.183143 18685.397410,4168.522689 19258.180937,4179.818643 19260.798087,4179.698567 19261.877002,4179.354844 19263.005339,4178.632996 19264.127553,4177.145950 19265.040056,4174.720407 19575.063571,3357.156785 19595.371371,3300.552253 19626.061161,3301.711547 19295.763009,4176.221710 19250.422538,4200.563374 19249.265631,4199.888264 19248.039126,4199.536235 19246.565054,4199.189270 19244.580430,4199.030213 17966.751468,4174.521885 17969.122073,4171.677995 17917.089626,4170.208679 17911.344365,4176.172259 17914.077526,4178.911125 17917.211906,4649.624150 17917.399578,4677.715658 17918.896750,4903.157726 17922.622070,5295.107666 17922.836630,5305.529492 17923.618568,5318.989868 17931.958537,5488.133723 17916.699714,5491.365014 17918.854233,5490.533139 17919.982340,5489.811132 17920.859484,5488.927915 17921.732975,5487.867306 17922.187326,5486.804235 17922.481584,5485.367341 17922.435245,5483.116670 17916.835418,5398.956841 17911.996060,5312.873581 17911.214107,5299.413205 17907.494359,4895.262203 17905.973113,4672.826478 17905.601797,4654.787862 17902.668359,4266.992445 17898.904721,4266.947900 17898.822775,4250.933125 17897.924444,4182.293797 17853.763793,4173.120406 17854.980009,4144.279044 17872.148474,4146.720753 17894.918388,4147.782742 17907.294186,4147.394933 17907.421166,4147.547604 17907.781693,4147.939486 17908.355581,4148.515537 17909.141462,4149.209234 17910.109401,4149.954643 17911.258257,4150.696328 17912.557867,4151.357269 17913.997796,4151.893314 17915.566696,4152.215961 17917.235090,4152.281451 17918.841789,4152.126377 17920.236724,4151.864744 17921.410828,4151.518922 17922.393582,4151.132670 17923.194733,4150.716881 17923.815196,4150.315902 17924.283992,4149.951319 17924.601806,4149.656394 17924.788367,4149.463995 17931.419293,4149.505008 17931.583448,4149.612547 17932.046661,4149.902492 17932.769705,4150.320190 17933.733079,4150.843860 17934.897327,4151.407764 17936.233197,4151.979228 17937.710984,4152.503404 17939.301437,4152.947621 17940.965556,4153.268313 17942.683156,4153.410437 17944.445172,4153.396363 17946.242994,4153.270635 17948.029925,4153.078582 17949.739541,4152.832661 17951.334437,4152.566917 17952.757481,4152.282526 17953.952455,4152.025012 17954.872206,4151.817528 17955.469351,4151.672140 17955.677693,4151.612395 17961.422163,4151.627299 17961.481120,4151.714819 17961.638261,4151.944512 17961.911947,4152.282725 17962.310559,4152.673825 17962.833413,4153.084553 17963.507933,4153.458885 17964.324142,4153.774843 17965.290192,4153.965709 17966.424672,4154.008917 17967.726441,4153.849033 17968.966287,4153.457496 17969.916826,4152.894445 17970.626351,4152.192160 17971.115046,4151.405684 17971.422368,4150.600757 17971.596839,4149.820747 17971.668166,4149.120501 17971.675576,4148.554670 17971.648777,4148.178103 17971.636517,4148.045254 17971.583661,4147.791232 17971.436211,4147.106579 17971.253352,4146.089903 17971.055724,4144.818420 17970.902969,4143.412914 17970.815726,4141.950602 17970.853410,4140.541177 17971.046410,4139.272750 17971.434869,4138.244319 17972.058697,4137.543797 17972.790004,4136.974165 17973.451236,4136.239598 17974.043077,4135.373359 17974.565527,4134.375447 17974.990705,4133.279710 17975.319067,4132.108323 17975.541090,4130.861482 17975.647937,4129.572644 17975.630315,4128.253092 17975.479157,4126.925195 17975.174735,4125.556084 17974.716821,4124.134673 17974.144643,4122.715612 17973.516018,4121.330989 17972.860651,4120.035649 17972.236588,4118.872766 17971.673306,4117.886100 17971.210033,4117.130302 17970.904815,4116.648546 17970.796424,4116.473308 17971.465565,4110.103984 17973.516901,4092.204105 17976.986492,4064.525424 17981.920609,4028.852762 17988.374597,3986.948569 17996.394504,3940.586579 18006.026378,3891.540525 18017.316259,3841.584144 18030.319474,3792.479887 18045.063229,3746.012968 18069.286945,3746.391091"/>
    <poly id="538137612" type="building.yes" color="255,230,230" fill="1" layer="-1.00" shape="18482.759754,3372.337948 18557.145436,3373.351796 18557.479022,3349.209493 18483.102693,3348.195438 18482.759754,3372.337948"/>
    <poly id="538137613" type="building.yes" color="255,230,230" fill="1" layer="-1.00" shape="18540.534085,3487.737072 18556.680922,3488.171149 18557.298681,3465.808770 18525.081116,3464.939072 18524.472947,3487.301262 18533.909339,3487.551326 18533.721751,3496.517242 18478.163456,3496.071127 18477.942091,3523.350093 18558.187328,3523.988511 18558.408901,3496.709559 18540.353284,3496.569748 18540.534085,3487.737072"/>
    <poly id="538137614" type="building.yes" color="255,230,230" fill="1" layer="-1.00" shape="18622.881542,3492.392424 18623.110310,3492.398824 18623.434458,3479.403842 18660.377845,3480.310037 18660.992088,3455.906888 18571.149376,3453.689843 18570.535340,3478.093008 18615.094521,3479.197761 18615.028710,3482.027484 18596.423470,3481.566098 18596.014533,3497.857046 18573.997077,3497.310405 18573.428268,3519.738327 18627.308673,3521.062311 18627.868301,3498.645680 18622.721375,3498.518306 18622.881542,3492.392424"/>
    <poly id="538137615" type="building.yes" color="255,230,230" fill="1" layer="-1.00" shape="18376.791386,3384.229284 18377.428892,3366.558243 18420.264156,3368.119085 18419.514825,3397.982163 18395.971421,3396.901524 18396.401718,3384.913679 18376.791386,3384.229284"/>
    <poly id="538137616" type="building.yes" color="255,230,230" fill="1" layer="-1.00" shape="18399.003757,3417.924553 18418.990410,3418.845278 18418.277489,3447.232419 18374.579862,3445.877874 18374.732111,3441.693185 18398.117825,3442.521898 18399.003757,3417.924553"/>
    <poly id="538137617" type="building.yes" color="255,230,230" fill="1" layer="-1.00" shape="18371.741469,3395.790666 18365.305058,3395.501330 18364.332506,3416.340381 18370.988379,3416.647393 18369.947116,3445.740065 18362.187553,3445.500082 18361.374596,3471.327116 18369.019641,3471.558356 18368.160048,3495.578403 18360.266524,3495.307900 18359.331161,3521.204000 18416.369568,3523.216297 18416.365280,3523.471494 18439.488233,3524.039478 18450.365909,3524.426257 18451.291745,3498.519286 18440.137662,3498.127085 18440.752528,3473.779330 18450.351961,3474.081432 18451.164907,3448.243330 18441.394046,3447.944744 18442.104560,3419.901500 18448.741380,3420.208952 18449.704348,3399.359026 18442.629020,3399.038389 18443.383388,3368.953380 18452.287991,3369.280843 18453.236568,3343.550880 18363.743161,3340.307926 18362.794574,3366.026823 18372.795428,3366.387170 18371.741469,3395.790666"/>
    <poly id="538137618" type="building.yes" color="255,230,230" fill="1" layer="-1.00" shape="18373.398114,3478.800061 18373.652604,3471.707252 18417.626506,3473.067205 18417.018940,3497.303900 18393.900438,3496.491852 18394.505129,3479.542444 18373.398114,3478.800061"/>
    <poly id="538138247" type="building.yes" color="255,230,230" fill="1" layer="-1.00" shape="19057.949510,3372.884602 19091.196315,3374.234011 19091.714465,3361.845159 19058.467622,3360.495747 19057.949510,3372.884602"/>
    <poly id="538138248" type="building.yes" color="255,230,230" fill="1" layer="-1.00" shape="19123.813648,3369.496012 19156.032226,3370.877753 19156.545015,3359.154517 19124.316879,3357.772967 19123.813648,3369.496012"/>
    <poly id="538138249" type="building.yes" color="255,230,230" fill="1" layer="-1.00" shape="19204.579985,3370.894104 19256.770787,3373.897475 19257.540349,3360.749276 19205.349483,3357.745898 19204.579985,3370.894104"/>
    <poly id="538138250" type="building.yes" color="255,230,230" fill="1" layer="-1.00" shape="19159.395299,3410.472577 19248.611397,3424.919336 19250.831088,3411.408736 19161.605359,3396.962147 19159.395299,3410.472577"/>
    <poly id="538138252" type="building.yes" color="255,230,230" fill="1" layer="-1.00" shape="19044.119887,3420.972546 19101.580921,3431.997425 19104.053913,3419.235826 19046.592815,3408.210930 19044.119887,3420.972546"/>
    <poly id="538138253" type="building.yes" color="255,230,230" fill="1" layer="-1.00" shape="18987.834467,3467.378550 19048.486612,3484.449281 19052.965547,3468.696235 18992.313323,3451.625474 18987.834467,3467.378550"/>
    <poly id="538138254" type="building.yes" color="255,230,230" fill="1" layer="-1.00" shape="19048.083110,3564.805287 19103.802221,3565.694755 19104.010419,3553.057136 19048.291014,3552.156576 19048.083110,3564.805287"/>
    <poly id="538138255" type="building.yes" color="255,230,230" fill="1" layer="-1.00" shape="19129.383084,3567.212197 19180.501908,3567.685978 19180.639224,3553.441533 19129.529853,3552.967552 19129.383084,3567.212197"/>
    <poly id="538138256" type="building.yes" color="255,230,230" fill="1" layer="-1.00" shape="19197.283784,3563.782306 19227.988360,3565.694312 19228.786416,3553.011369 19198.081805,3551.099359 19197.283784,3563.782306"/>
    <poly id="538138257" type="building.yes" color="255,230,230" fill="1" layer="-1.00" shape="19120.031615,3484.504754 19204.196190,3502.115738 19206.846127,3489.616749 19122.671937,3472.005934 19120.031615,3484.504754"/>
    <poly id="538141210" type="building.yes" color="255,230,230" fill="1" layer="-1.00" shape="17918.886661,2816.627247 17957.714071,2828.872489 17965.401499,2804.734132 17926.574013,2792.488856 17918.886661,2816.627247"/>
    <poly id="538141211" type="building.yes" color="255,230,230" fill="1" layer="-1.00" shape="17961.276479,2827.446037 18012.742586,2843.679678 18019.920356,2821.160144 17968.444633,2804.926658 17961.276479,2827.446037"/>
    <poly id="538141212" type="building.yes" color="255,230,230" fill="1" layer="-1.00" shape="17947.095448,2871.228263 17996.019974,2886.648930 18003.170925,2864.218663 17954.246311,2848.797957 17947.095448,2871.228263"/>
    <poly id="538141213" type="building.yes" color="255,230,230" fill="1" layer="-1.00" shape="17905.458681,2859.495621 17943.825656,2871.594991 17951.227198,2848.383108 17912.850629,2836.283903 17905.458681,2859.495621"/>
    <poly id="538141214" type="building.yes" color="255,230,230" fill="1" layer="-1.00" shape="18151.299718,3046.937481 18189.588812,3059.006002 18197.545143,3034.030431 18159.265495,3021.961682 18151.299718,3046.937481"/>
    <poly id="538141215" type="building.yes" color="255,230,230" fill="1" layer="-1.00" shape="18102.882629,3028.344600 18150.099460,3043.235338 18158.118275,3018.058797 18110.901349,3003.168018 18102.882629,3028.344600"/>
    <poly id="538141216" type="building.yes" color="255,230,230" fill="1" layer="-1.00" shape="18167.533949,3003.368486 18205.200081,3015.250223 18213.013690,2990.743454 18175.337961,2978.861881 18167.533949,3003.368486"/>
    <poly id="538141217" type="building.yes" color="255,230,230" fill="1" layer="-1.00" shape="18118.062241,2983.532740 18167.053294,2998.986054 18174.857537,2974.490535 18125.866388,2959.037180 18118.062241,2983.532740"/>
    <poly id="538141218" type="building.yes" color="255,230,230" fill="1" layer="-1.00" shape="18181.464944,2960.368160 18218.900831,2972.165953 18227.170581,2946.207913 18189.743911,2934.398803 18181.464944,2960.368160"/>
    <poly id="538141219" type="building.yes" color="255,230,230" fill="1" layer="-1.00" shape="18129.614403,2936.510572 18180.532986,2952.567669 18188.221022,2928.440581 18137.302340,2912.383441 18129.614403,2936.510572"/>
    <poly id="538141220" type="building.yes" color="255,230,230" fill="1" layer="-1.00" shape="18196.618815,2914.281437 18234.831673,2926.329535 18242.376823,2902.660192 18204.163892,2890.612062 18196.618815,2914.281437"/>
    <poly id="538141221" type="building.yes" color="255,230,230" fill="1" layer="-1.00" shape="18147.897408,2893.420767 18195.967993,2908.571498 18203.432605,2885.158885 18155.352179,2869.997224 18147.897408,2893.420767"/>
    <poly id="538141222" type="building.yes" color="255,230,230" fill="1" layer="-1.00" shape="18086.419041,2873.953864 18124.478917,2885.960359 18131.925260,2862.592428 18093.865313,2850.585902 18086.419041,2873.953864"/>
    <poly id="538141223" type="building.yes" color="255,230,230" fill="1" layer="-1.00" shape="18030.540092,2852.985718 18084.211300,2869.906408 18092.686873,2843.311789 18039.015323,2826.379963 18030.540092,2852.985718"/>
    <poly id="538141224" type="building.yes" color="255,230,230" fill="1" layer="-1.00" shape="18067.920090,2918.578884 18108.041418,2931.230619 18116.140942,2905.808374 18076.019532,2893.156603 18067.920090,2918.578884"/>
    <poly id="538141225" type="building.yes" color="255,230,230" fill="1" layer="-1.00" shape="18016.054514,2894.478113 18066.009647,2912.772832 18074.547851,2889.692971 18024.602154,2871.398010 18016.054514,2894.478113"/>
    <poly id="538141226" type="building.yes" color="255,230,230" fill="1" layer="-1.00" shape="18049.396062,2962.439140 18086.424868,2973.889907 18094.049609,2949.475649 18057.020731,2938.024850 18049.396062,2962.439140"/>
    <poly id="538141227" type="building.yes" color="255,230,230" fill="1" layer="-1.00" shape="18000.142041,2940.702761 18051.105474,2958.466445 18059.594062,2934.367148 18008.630534,2916.603418 18000.142041,2940.702761"/>
    <poly id="538141228" type="building.yes" color="255,230,230" fill="1" layer="-1.00" shape="18037.280586,3007.066110 18075.358476,3019.504603 18083.770953,2994.020427 18045.692986,2981.581899 18037.280586,3007.066110"/>
    <poly id="538141229" type="building.yes" color="255,230,230" fill="1" layer="-1.00" shape="17982.137821,2984.807582 18033.604839,3002.050593 18041.715387,2978.103240 17990.257566,2960.848900 17982.137821,2984.807582"/>
    <poly id="539357680" type="landuse.residential" color="235,235,227" fill="1" layer="-3.00" shape="18752.245597,4087.447390 18752.879560,4093.279699 18752.618686,4099.141443 18751.469544,4104.888298 18749.448907,4110.409001 18746.620474,4115.558058 18743.038878,4120.212339 18738.787998,4124.281393 18733.970530,4127.663291 18728.689623,4130.278276 18723.077446,4132.068181 18717.247352,4132.986316 18711.351463,4133.018470 18705.523084,4132.161910 18699.886454,4130.436271 18687.250726,4163.670900 19114.918982,4171.303085 19118.008179,4159.804389 19123.838501,4144.933200 19131.829625,4129.518674 19140.462153,4114.723254 19149.875505,4099.911866 19158.832553,4088.404038 19166.701883,4079.602649 19178.951056,4066.507932 19189.122241,4057.537461 19205.332611,4044.361743 19218.799121,4034.425474 19230.149293,4027.205591 19246.070717,4018.993808 19263.314140,4012.540765 19285.135855,4004.973704 19298.480504,4001.650641 19326.337400,3995.734928 19408.643318,3778.575951 19255.277662,3775.610714 19252.445263,3787.104091 19249.203643,3797.219386 19243.892095,3812.323876 19235.931818,3829.268291 19229.276993,3841.106054 19221.811660,3851.041549 19214.091055,3860.605157 19205.213297,3869.948427 19195.821133,3879.291136 19183.285798,3890.983029 19176.007556,3897.487425 19099.713632,3952.443631 18782.832484,3950.293206 18741.253070,4059.588653 18740.904693,4061.181902 18741.193152,4062.706638 18741.734614,4064.026537 18746.898258,4072.882743 18749.954668,4078.853950 18751.182511,4082.522302 18752.245597,4087.447390"/>
    <poly id="539357681" type="landuse.residential" color="235,235,227" fill="1" layer="-3.00" shape="18970.541583,3932.971289 18995.657198,3862.025106 19061.607689,3863.470073 19068.825479,3863.322337 19072.714819,3862.987623 19077.234428,3862.262895 19080.990904,3861.487239 19084.022781,3860.216199 19090.858723,3856.770988 19102.237610,3850.947935 19112.845214,3845.140678 19122.191371,3839.603262 19128.997172,3835.149356 19135.529999,3829.924627 19142.273202,3822.410723 19148.506747,3814.663237 19152.718662,3808.210470 19157.645859,3799.469288 19161.816504,3790.998694 19164.464287,3783.058381 19166.334872,3774.379739 19238.907149,3774.925068 19236.537043,3783.869017 19232.187466,3796.169843 19226.566914,3808.740682 19220.672950,3820.052674 19212.274456,3834.199893 19202.563957,3846.610391 19193.084272,3857.729551 19181.814672,3868.896429 19170.010034,3879.053837 19101.304135,3930.549478 19097.276339,3933.427000 19094.626728,3934.756764 19092.207673,3935.249938 19089.267845,3935.432114 18970.541583,3932.971289"/>
    <poly id="539357683" type="landuse.residential" color="235,235,227" fill="1" layer="-3.00" shape="18674.387444,3932.174324 18753.858147,3932.829879 18814.728629,3773.315529 18815.183781,3770.888223 18814.889174,3768.598288 18814.127276,3765.818805 18812.862990,3763.626382 18810.265360,3761.450190 18806.925488,3760.243091 18679.249878,3758.157351 18674.387444,3932.174324"/>
    <poly id="539357684" type="leisure.park" color="207,245,201" fill="1" layer="-2.00" shape="18497.044624,3931.486662 18366.961283,3917.375429 18372.968230,3749.701058 18507.196658,3753.556393 18505.312025,3786.592800 18501.058488,3861.094143 18497.044624,3931.486662"/>
    <poly id="539357685" type="landuse.retail" color="194,194,130" fill="1" layer="-3.00" shape="18679.249878,3758.157351 18674.387444,3932.174324 18497.044624,3931.486662 18501.058488,3861.094143 18505.312025,3786.592800 18507.196658,3753.556393 18679.249878,3758.157351"/>
    <poly id="539357686" type="amenity.university" color="237,199,199" fill="1" layer="-1.00" shape="17854.980009,4144.279044 17797.227119,4131.481396 17795.226173,4133.308367 17786.253538,4131.962468 17786.926485,4127.633924 17675.803975,4103.979138 17645.900294,4096.975233 17645.677239,4098.632500 17635.942785,4097.302423 17636.263580,4094.378682 17591.480277,4084.609131 17552.815149,3727.419739 17942.783402,3742.526578 17947.022546,3743.448708 17949.343655,3744.676502 17951.311642,3746.798899 17952.897939,3749.816486 17953.983828,3752.589259 17954.684549,3755.625065 17954.876312,3758.926452 17954.679427,3761.858717 17954.242718,3765.173034 17935.846449,3815.131516 17930.015645,3841.949264 17874.601691,3992.850133 17871.770108,4003.844860 17868.235997,4018.658513 17865.434160,4031.560409 17862.279976,4045.856025 17860.246932,4058.620090 17858.216175,4071.495026 17856.687582,4084.237617 17855.654923,4096.082662 17854.748792,4108.058203 17854.430655,4117.592550 17854.980009,4144.279044"/>
    <poly id="543898224" type="leisure.pitch" color="207,245,201" fill="1" layer="-2.00" shape="18367.204865,4139.370612 18369.538057,3924.099537 18437.229379,3929.597651 18422.340625,4142.597481 18367.204865,4139.370612"/>
    <poly id="543898224#1" type="sport.soccer" color="79,230,125" fill="1" layer="-2.00" shape="18367.204865,4139.370612 18369.538057,3924.099537 18437.229379,3929.597651 18422.340625,4142.597481 18367.204865,4139.370612"/>
    <poly id="543898226" type="landuse.residential" color="235,235,227" fill="1" layer="-3.00" shape="18605.329017,4032.306533 18663.132757,4032.762512 18662.253827,4090.701224 18627.627532,4093.052976 18628.567759,4118.921650 18527.413044,4118.523551 18527.628999,4048.275519 18606.417416,4045.427837 18605.329017,4032.306533"/>
    <poly id="543898227" type="landuse.residential" color="235,235,227" fill="1" layer="-3.00" shape="18589.733942,3935.208297 18586.823806,4021.350462 18669.599171,4021.992994 18720.929862,4015.705211 18747.642925,3937.271939 18589.733942,3935.208297"/>
    <poly id="546331189" type="landuse.residential" color="235,235,227" fill="1" layer="-3.00" shape="18502.661566,3996.302074 18566.078850,3997.341107 18569.561762,3934.945538 18502.622970,3934.078549 18502.661566,3996.302074"/>
    <poly id="578944138" type="amenity.kindergarten" color="237,199,199" fill="1" layer="-1.00" shape="18866.534848,3932.927674 18893.118592,3859.278028 18988.771079,3861.622610 18965.943334,3933.575668 18866.534848,3932.927674"/>