<?xml version="1.0" encoding="UTF-8"?>

<!-- generated on 2021-07-05 01:05:45 by Eclipse SUMO netedit Version 1.9.1
<configuration xmlns:xsi="http://www.w3.org/2001/XMLSchema-instance" xsi:noNamespaceSchemaLocation="http://sumo.dlr.de/xsd/netconvertConfiguration.xsd">

    <input>
        <sumo-net-file value="C:\Users\23368\Desktop\sumoTest\sumot7.net.xml"/>
    </input>

    <output>
        <output-file value="C:\Users\23368\Desktop\sumoTest\sumot7.net.xml"/>
    </output>

    <processing>
        <geometry.min-radius.fix.railways value="false"/>
        <geometry.max-grade.fix value="false"/>
        <offset.disable-normalization value="true"/>
        <lefthand value="false"/>
    </processing>

    <junctions>
        <no-turnarounds value="true"/>
        <junctions.corner-detail value="5"/>
        <junctions.limit-turn-speed value="5.5"/>
        <rectangular-lane-cut value="false"/>
    </junctions>

    <pedestrian>
        <walkingareas value="false"/>
    </pedestrian>

    <report>
        <aggregate-warnings value="5"/>
    </report>

</configuration>
-->

<net version="1.9" junctionCornerDetail="5" limitTurnSpeed="5.50" xmlns:xsi="http://www.w3.org/2001/XMLSchema-instance" xsi:noNamespaceSchemaLocation="http://sumo.dlr.de/xsd/net_file.xsd">

    <location netOffset="0.00,0.00" convBoundary="0.00,-700.00,1400.00,700.00" origBoundary="-10000000000.00,-10000000000.00,10000000000.00,10000000000.00" projParameter="!"/>

    <edge id=":2_0" function="internal">
        <lane id=":2_0_0" index="0" speed="6.51" length="9.03" shape="695.20,10.40 694.85,7.95 693.80,6.20 692.05,5.15 689.60,4.80"/>
    </edge>
    <edge id=":2_1" function="internal">
        <lane id=":2_1_0" index="0" speed="13.89" length="20.80" shape="695.20,10.40 695.20,-10.40"/>
        <lane id=":2_1_1" index="1" speed="13.89" length="20.80" shape="698.40,10.40 698.40,-10.40"/>
    </edge>
    <edge id=":2_3" function="internal">
        <lane id=":2_3_0" index="0" speed="9.26" length="6.96" shape="698.40,10.40 699.15,5.15 700.00,3.73"/>
    </edge>
    <edge id=":2_16" function="internal">
        <lane id=":2_16_0" index="0" speed="9.26" length="12.40" shape="700.00,3.73 701.40,1.40 705.15,-0.85 710.40,-1.60"/>
    </edge>
    <edge id=":2_4" function="internal">
        <lane id=":2_4_0" index="0" speed="6.51" length="9.03" shape="710.40,4.80 707.95,5.15 706.20,6.20 705.15,7.95 704.80,10.40"/>
    </edge>
    <edge id=":2_5" function="internal">
        <lane id=":2_5_0" index="0" speed="13.89" length="20.80" shape="710.40,4.80 689.60,4.80"/>
        <lane id=":2_5_1" index="1" speed="13.89" length="20.80" shape="710.40,1.60 689.60,1.60"/>
    </edge>
    <edge id=":2_7" function="internal">
        <lane id=":2_7_0" index="0" speed="9.26" length="6.96" shape="710.40,1.60 705.15,0.85 703.73,0.00"/>
    </edge>
    <edge id=":2_17" function="internal">
        <lane id=":2_17_0" index="0" speed="9.26" length="12.40" shape="703.73,0.00 701.40,-1.40 699.15,-5.15 698.40,-10.40"/>
    </edge>
    <edge id=":2_8" function="internal">
        <lane id=":2_8_0" index="0" speed="6.51" length="9.03" shape="704.80,-10.40 705.15,-7.95 706.20,-6.20 707.95,-5.15 710.40,-4.80"/>
    </edge>
    <edge id=":2_9" function="internal">
        <lane id=":2_9_0" index="0" speed="13.89" length="20.80" shape="704.80,-10.40 704.80,10.40"/>
        <lane id=":2_9_1" index="1" speed="13.89" length="20.80" shape="701.60,-10.40 701.60,10.40"/>
    </edge>
    <edge id=":2_11" function="internal">
        <lane id=":2_11_0" index="0" speed="9.26" length="6.96" shape="701.60,-10.40 700.85,-5.15 700.00,-3.73"/>
    </edge>
    <edge id=":2_18" function="internal">
        <lane id=":2_18_0" index="0" speed="9.26" length="12.40" shape="700.00,-3.73 698.60,-1.40 694.85,0.85 689.60,1.60"/>
    </edge>
    <edge id=":2_12" function="internal">
        <lane id=":2_12_0" index="0" speed="6.51" length="9.03" shape="689.60,-4.80 692.05,-5.15 693.80,-6.20 694.85,-7.95 695.20,-10.40"/>
    </edge>
    <edge id=":2_13" function="internal">
        <lane id=":2_13_0" index="0" speed="13.89" length="20.80" shape="689.60,-4.80 710.40,-4.80"/>
        <lane id=":2_13_1" index="1" speed="13.89" length="20.80" shape="689.60,-1.60 710.40,-1.60"/>
    </edge>
    <edge id=":2_15" function="internal">
        <lane id=":2_15_0" index="0" speed="9.26" length="6.96" shape="689.60,-1.60 694.85,-0.85 696.27,-0.00"/>
    </edge>
    <edge id=":2_19" function="internal">
        <lane id=":2_19_0" index="0" speed="9.26" length="12.40" shape="696.27,-0.00 698.60,1.40 700.85,5.15 701.60,10.40"/>
    </edge>

    <edge id="-gneE0" from="2" to="1" priority="-1">
        <lane id="-gneE0_0" index="0" speed="13.89" length="689.60" shape="689.60,4.80 0.00,4.80"/>
        <lane id="-gneE0_1" index="1" speed="13.89" length="689.60" shape="689.60,1.60 0.00,1.60"/>
    </edge>
    <edge id="-gneE1" from="3" to="2" priority="-1">
        <lane id="-gneE1_0" index="0" speed="13.89" length="689.60" shape="1400.00,4.80 710.40,4.80"/>
        <lane id="-gneE1_1" index="1" speed="13.89" length="689.60" shape="1400.00,1.60 710.40,1.60"/>
    </edge>
    <edge id="-gneE2" from="4" to="2" priority="-1">
        <lane id="-gneE2_0" index="0" speed="13.89" length="689.60" shape="695.20,700.00 695.20,10.40"/>
        <lane id="-gneE2_1" index="1" speed="13.89" length="689.60" shape="698.40,700.00 698.40,10.40"/>
    </edge>
    <edge id="-gneE3" from="5" to="2" priority="-1">
        <lane id="-gneE3_0" index="0" speed="13.89" length="689.60" shape="704.80,-700.00 704.80,-10.40"/>
        <lane id="-gneE3_1" index="1" speed="13.89" length="689.60" shape="701.60,-700.00 701.60,-10.40"/>
    </edge>
    <edge id="gneE0" from="1" to="2" priority="-1">
        <lane id="gneE0_0" index="0" speed="13.89" length="689.60" shape="0.00,-4.80 689.60,-4.80"/>
        <lane id="gneE0_1" index="1" speed="13.89" length="689.60" shape="0.00,-1.60 689.60,-1.60"/>
    </edge>
    <edge id="gneE1" from="2" to="3" priority="-1">
        <lane id="gneE1_0" index="0" speed="13.89" length="689.60" shape="710.40,-4.80 1400.00,-4.80"/>
        <lane id="gneE1_1" index="1" speed="13.89" length="689.60" shape="710.40,-1.60 1400.00,-1.60"/>
    </edge>
    <edge id="gneE2" from="2" to="4" priority="-1">
        <lane id="gneE2_0" index="0" speed="13.89" length="689.60" shape="704.80,10.40 704.80,700.00"/>
        <lane id="gneE2_1" index="1" speed="13.89" length="689.60" shape="701.60,10.40 701.60,700.00"/>
    </edge>
    <edge id="gneE3" from="2" to="5" priority="-1">
        <lane id="gneE3_0" index="0" speed="13.89" length="689.60" shape="695.20,-10.40 695.20,-700.00"/>
        <lane id="gneE3_1" index="1" speed="13.89" length="689.60" shape="698.40,-10.40 698.40,-700.00"/>
    </edge>

    <tlLogic id="2" type="static" programID="0" offset="0">
        <phase duration="42" state="GGGgrrrrGGGgrrrr"/>
        <phase duration="3"  state="yyyyrrrryyyyrrrr"/>
        <phase duration="42" state="rrrrGGGgrrrrGGGg"/>
        <phase duration="3"  state="rrrryyyyrrrryyyy"/>
    </tlLogic>

    <junction id="1" type="dead_end" x="0.00" y="0.00" incLanes="-gneE0_0 -gneE0_1" intLanes="" shape="0.00,0.00 0.00,6.40 0.00,0.00"/>
    <junction id="2" type="traffic_light" x="700.00" y="0.00" incLanes="-gneE2_0 -gneE2_1 -gneE1_0 -gneE1_1 -gneE3_0 -gneE3_1 gneE0_0 gneE0_1" intLanes=":2_0_0 :2_1_0 :2_1_1 :2_16_0 :2_4_0 :2_5_0 :2_5_1 :2_17_0 :2_8_0 :2_9_0 :2_9_1 :2_18_0 :2_12_0 :2_13_0 :2_13_1 :2_19_0" shape="693.60,10.40 706.40,10.40 706.84,8.18 707.40,7.40 708.18,6.84 709.18,6.51 710.40,6.40 710.40,-6.40 708.18,-6.84 707.40,-7.40 706.84,-8.18 706.51,-9.18 706.40,-10.40 693.60,-10.40 693.16,-8.18 692.60,-7.40 691.82,-6.84 690.82,-6.51 689.60,-6.40 689.60,6.40 691.82,6.84 692.60,7.40 693.16,8.18 693.49,9.18">
        <request index="0"  response="0000000000000000" foes="0000000001100000" cont="0"/>
        <request index="1"  response="1000000010000000" foes="1111100011100000" cont="0"/>
        <request index="2"  response="1000000010000000" foes="1111100011100000" cont="0"/>
        <request index="3"  response="1000011010000000" foes="1110011011100000" cont="1"/>
        <request index="4"  response="0000011000000000" foes="0000011000000000" cont="0"/>
        <request index="5"  response="0000111000001111" foes="1000111000001111" cont="0"/>
        <request index="6"  response="0000111000001111" foes="1000111000001111" cont="0"/>
        <request index="7"  response="0110111000001110" foes="0110111000001110" cont="1"/>
        <request index="8"  response="0000000000000000" foes="0110000000000000" cont="0"/>
        <request index="9"  response="1000000010000000" foes="1110000011111000" cont="0"/>
        <request index="10" response="1000000010000000" foes="1110000011111000" cont="0"/>
        <request index="11" response="1000000010000110" foes="1110000011100110" cont="1"/>
        <request index="12" response="0000000000000110" foes="0000000000000110" cont="0"/>
        <request index="13" response="0000111100001110" foes="0000111110001110" cont="0"/>
        <request index="14" response="0000111100001110" foes="0000111110001110" cont="0"/>
        <request index="15" response="0000111001101110" foes="0000111001101110" cont="1"/>
    </junction>
    <junction id="3" type="dead_end" x="1400.00" y="0.00" incLanes="gneE1_0 gneE1_1" intLanes="" shape="1400.00,0.00 1400.00,-6.40 1400.00,0.00"/>
    <junction id="4" type="dead_end" x="700.00" y="700.00" incLanes="gneE2_0 gneE2_1" intLanes="" shape="700.00,700.00 706.40,700.00 700.00,700.00"/>
    <junction id="5" type="dead_end" x="700.00" y="-700.00" incLanes="gneE3_0 gneE3_1" intLanes="" shape="700.00,-700.00 693.60,-700.00 700.00,-700.00"/>

    <junction id=":2_16_0" type="internal" x="700.00" y="3.73" incLanes=":2_3_0 -gneE3_0 -gneE3_1" intLanes=":2_5_0 :2_5_1 :2_7_0 :2_8_0 :2_9_0 :2_9_1 :2_13_0 :2_13_1 :2_15_0"/>
    <junction id=":2_17_0" type="internal" x="703.73" y="0.00" incLanes=":2_7_0 gneE0_0 gneE0_1" intLanes=":2_1_0 :2_1_1 :2_3_0 :2_9_0 :2_9_1 :2_11_0 :2_12_0 :2_13_0 :2_13_1"/>
    <junction id=":2_18_0" type="internal" x="700.00" y="-3.73" incLanes=":2_11_0 -gneE2_0 -gneE2_1" intLanes=":2_0_0 :2_1_0 :2_1_1 :2_5_0 :2_5_1 :2_7_0 :2_13_0 :2_13_1 :2_15_0"/>
    <junction id=":2_19_0" type="internal" x="696.27" y="-0.00" incLanes=":2_15_0 -gneE1_0 -gneE1_1" intLanes=":2_1_0 :2_1_1 :2_3_0 :2_4_0 :2_5_0 :2_5_1 :2_9_0 :2_9_1 :2_11_0"/>

    <connection from="-gneE1" to="gneE2" fromLane="0" toLane="0" via=":2_4_0" tl="2" linkIndex="4" dir="r" state="o"/>
    <connection from="-gneE1" to="-gneE0" fromLane="0" toLane="0" via=":2_5_0" tl="2" linkIndex="5" dir="s" state="o"/>
    <connection from="-gneE1" to="-gneE0" fromLane="1" toLane="1" via=":2_5_1" tl="2" linkIndex="6" dir="s" state="o"/>
    <connection from="-gneE1" to="gneE3" fromLane="1" toLane="1" via=":2_7_0" tl="2" linkIndex="7" dir="l" state="o"/>
    <connection from="-gneE2" to="-gneE0" fromLane="0" toLane="0" via=":2_0_0" tl="2" linkIndex="0" dir="r" state="O"/>
    <connection from="-gneE2" to="gneE3" fromLane="0" toLane="0" via=":2_1_0" tl="2" linkIndex="1" dir="s" state="O"/>
    <connection from="-gneE2" to="gneE3" fromLane="1" toLane="1" via=":2_1_1" tl="2" linkIndex="2" dir="s" state="O"/>
    <connection from="-gneE2" to="gneE1" fromLane="1" toLane="1" via=":2_3_0" tl="2" linkIndex="3" dir="l" state="o"/>
    <connection from="-gneE3" to="gneE1" fromLane="0" toLane="0" via=":2_8_0" tl="2" linkIndex="8" dir="r" state="O"/>
    <connection from="-gneE3" to="gneE2" fromLane="0" toLane="0" via=":2_9_0" tl="2" linkIndex="9" dir="s" state="O"/>
    <connection from="-gneE3" to="gneE2" fromLane="1" toLane="1" via=":2_9_1" tl="2" linkIndex="10" dir="s" state="O"/>
    <connection from="-gneE3" to="-gneE0" fromLane="1" toLane="1" via=":2_11_0" tl="2" linkIndex="11" dir="l" state="o"/>
    <connection from="gneE0" to="gneE3" fromLane="0" toLane="0" via=":2_12_0" tl="2" linkIndex="12" dir="r" state="o"/>
    <connection from="gneE0" to="gneE1" fromLane="0" toLane="0" via=":2_13_0" tl="2" linkIndex="13" dir="s" state="o"/>
    <connection from="gneE0" to="gneE1" fromLane="1" toLane="1" via=":2_13_1" tl="2" linkIndex="14" dir="s" state="o"/>
    <connection from="gneE0" to="gneE2" fromLane="1" toLane="1" via=":2_15_0" tl="2" linkIndex="15" dir="l" state="o"/>

    <connection from=":2_0" to="-gneE0" fromLane="0" toLane="0" dir="r" state="M"/>
    <connection from=":2_1" to="gneE3" fromLane="0" toLane="0" dir="s" state="M"/>
    <connection from=":2_1" to="gneE3" fromLane="1" toLane="1" dir="s" state="M"/>
    <connection from=":2_3" to="gneE1" fromLane="0" toLane="1" via=":2_16_0" dir="l" state="m"/>
    <connection from=":2_16" to="gneE1" fromLane="0" toLane="1" dir="l" state="M"/>
    <connection from=":2_4" to="gneE2" fromLane="0" toLane="0" dir="r" state="M"/>
    <connection from=":2_5" to="-gneE0" fromLane="0" toLane="0" dir="s" state="M"/>
    <connection from=":2_5" to="-gneE0" fromLane="1" toLane="1" dir="s" state="M"/>
    <connection from=":2_7" to="gneE3" fromLane="0" toLane="1" via=":2_17_0" dir="l" state="m"/>
    <connection from=":2_17" to="gneE3" fromLane="0" toLane="1" dir="l" state="M"/>
    <connection from=":2_8" to="gneE1" fromLane="0" toLane="0" dir="r" state="M"/>
    <connection from=":2_9" to="gneE2" fromLane="0" toLane="0" dir="s" state="M"/>
    <connection from=":2_9" to="gneE2" fromLane="1" toLane="1" dir="s" state="M"/>
    <connection from=":2_11" to="-gneE0" fromLane="0" toLane="1" via=":2_18_0" dir="l" state="m"/>
    <connection from=":2_18" to="-gneE0" fromLane="0" toLane="1" dir="l" state="M"/>
    <connection from=":2_12" to="gneE3" fromLane="0" toLane="0" dir="r" state="M"/>
    <connection from=":2_13" to="gneE1" fromLane="0" toLane="0" dir="s" state="M"/>
    <connection from=":2_13" to="gneE1" fromLane="1" toLane="1" dir="s" state="M"/>
    <connection from=":2_15" to="gneE2" fromLane="0" toLane="1" via=":2_19_0" dir="l" state="m"/>
    <connection from=":2_19" to="gneE2" fromLane="0" toLane="1" dir="l" state="M"/>

</net>
