<?xml version="1.0" encoding="UTF-8"?>

<!-- generated on 2021-06-22 16:37:31 by Eclipse SUMO duarouter Version 1.9.1
<configuration xmlns:xsi="http://www.w3.org/2001/XMLSchema-instance" xsi:noNamespaceSchemaLocation="http://sumo.dlr.de/xsd/duarouterConfiguration.xsd">

    <input>
        <net-file value="C:\Users\11523\Sumo\2021-06-22-16-37-23\osm.net.xml"/>
        <route-files value="C:\Users\11523\Sumo\2021-06-22-16-37-23\osm.passenger.trips.xml"/>
    </input>

    <output>
        <output-file value="C:\Users\11523\Sumo\2021-06-22-16-37-23\osm.passenger.trips.xml.tmp"/>
        <write-trips value="true"/>
    </output>

    <time>
        <begin value="0"/>
        <end value="3600"/>
    </time>

    <report>
        <no-warnings value="true"/>
        <ignore-errors value="true"/>
        <no-step-log value="true"/>
    </report>

</configuration>
-->

<routes xmlns:xsi="http://www.w3.org/2001/XMLSchema-instance" xsi:noNamespaceSchemaLocation="http://sumo.dlr.de/xsd/routes_file.xsd">
    <vType id="veh_passenger" vClass="passenger"/>
    <trip id="veh0" type="veh_passenger" depart="0.00" departLane="best" departSpeed="max" from="505059836" to="-122198593#1"/>
    <trip id="veh1" type="veh_passenger" depart="0.70" departLane="best" departSpeed="max" from="-817147794" to="348699609#3"/>
    <trip id="veh2" type="veh_passenger" depart="1.39" departLane="best" departSpeed="max" from="527448985#0" to="798001345#4"/>
    <trip id="veh3" type="veh_passenger" depart="2.09" departLane="best" departSpeed="max" from="794261155#0" to="-527448985#0"/>
    <trip id="veh4" type="veh_passenger" depart="2.79" departLane="best" departSpeed="max" from="122198594#0" to="-122198593#1"/>
    <trip id="veh5" type="veh_passenger" depart="3.48" departLane="best" departSpeed="max" from="-817147791#2" to="797777131#4"/>
    <trip id="veh6" type="veh_passenger" depart="4.18" departLane="best" departSpeed="max" from="505059836" to="798001345#1"/>
    <trip id="veh7" type="veh_passenger" depart="4.88" departLane="best" departSpeed="max" from="-817147791#2" to="798001345#4"/>
    <trip id="veh8" type="veh_passenger" depart="5.57" departLane="best" departSpeed="max" from="791820710" to="-122198593#1"/>
    <trip id="veh9" type="veh_passenger" depart="6.27" departLane="best" departSpeed="max" from="791820710" to="798001346"/>
    <trip id="veh10" type="veh_passenger" depart="6.97" departLane="best" departSpeed="max" from="-817147795#1" to="-791820710"/>
    <trip id="veh11" type="veh_passenger" depart="7.66" departLane="best" departSpeed="max" from="827866597#0" to="505059835"/>
    <trip id="veh12" type="veh_passenger" depart="8.36" departLane="best" departSpeed="max" from="-791820730" to="-527448985#0"/>
    <trip id="veh13" type="veh_passenger" depart="9.06" departLane="best" departSpeed="max" from="791820710" to="798001345#4"/>
    <trip id="veh14" type="veh_passenger" depart="9.75" departLane="best" departSpeed="max" from="791820710" to="798001346"/>
    <trip id="veh15" type="veh_passenger" depart="10.45" departLane="best" departSpeed="max" from="505059836" to="827866599#2"/>
    <trip id="veh16" type="veh_passenger" depart="11.15" departLane="best" departSpeed="max" from="122198593#0" to="798001345#4"/>
    <trip id="veh17" type="veh_passenger" depart="11.84" departLane="best" departSpeed="max" from="791820710" to="798001345#4"/>
    <trip id="veh18" type="veh_passenger" depart="12.54" departLane="best" departSpeed="max" from="521567035#0" to="-122198593#1"/>
    <trip id="veh19" type="veh_passenger" depart="13.24" departLane="best" departSpeed="max" from="-817147791#2" to="505059835"/>
    <trip id="veh20" type="veh_passenger" depart="13.93" departLane="best" departSpeed="max" from="-791820730" to="350709830#0"/>
    <trip id="veh21" type="veh_passenger" depart="14.63" departLane="best" departSpeed="max" from="-791820730" to="505059835"/>
    <trip id="veh22" type="veh_passenger" depart="15.33" departLane="best" departSpeed="max" from="122198593#0" to="348699609#3"/>
    <trip id="veh23" type="veh_passenger" depart="16.03" departLane="best" departSpeed="max" from="505059836" to="798001345#4"/>
    <trip id="veh24" type="veh_passenger" depart="16.72" departLane="best" departSpeed="max" from="-794235948" to="798001346"/>
    <trip id="veh25" type="veh_passenger" depart="17.42" departLane="best" departSpeed="max" from="-794235948" to="505059835"/>
    <trip id="veh26" type="veh_passenger" depart="18.12" departLane="best" departSpeed="max" from="827866597#0" to="798001345#4"/>
    <trip id="veh27" type="veh_passenger" depart="18.81" departLane="best" departSpeed="max" from="505059836" to="798001345#4"/>
    <trip id="veh28" type="veh_passenger" depart="19.51" departLane="best" departSpeed="max" from="791820710" to="817147791#2"/>
    <trip id="veh29" type="veh_passenger" depart="20.21" departLane="best" departSpeed="max" from="-817147791#2" to="-122198593#1"/>
    <trip id="veh30" type="veh_passenger" depart="20.90" departLane="best" departSpeed="max" from="-817147795#1" to="505059835"/>
    <trip id="veh31" type="veh_passenger" depart="21.60" departLane="best" departSpeed="max" from="-817147791#2" to="827861264#3"/>
    <trip id="veh32" type="veh_passenger" depart="22.30" departLane="best" departSpeed="max" from="794261155#0" to="505059835"/>
    <trip id="veh33" type="veh_passenger" depart="22.99" departLane="best" departSpeed="max" from="505059836" to="791820730"/>
    <trip id="veh34" type="veh_passenger" depart="23.69" departLane="best" from="798001345#1" to="794235948"/>
    <trip id="veh35" type="veh_passenger" depart="24.39" departLane="best" departSpeed="max" from="-817147794" to="505059835"/>
    <trip id="veh36" type="veh_passenger" depart="25.08" departLane="best" departSpeed="max" from="505059836" to="827861264#3"/>
    <trip id="veh37" type="veh_passenger" depart="25.78" departLane="best" departSpeed="max" from="122198593#0" to="348699609#3"/>
    <trip id="veh38" type="veh_passenger" depart="26.48" departLane="best" from="885305675#2" to="797777131#4"/>
    <trip id="veh39" type="veh_passenger" depart="27.17" departLane="best" departSpeed="max" from="-791820730" to="-122198593#1"/>
    <trip id="veh40" type="veh_passenger" depart="27.87" departLane="best" departSpeed="max" from="-791820730" to="798001345#4"/>
    <trip id="veh41" type="veh_passenger" depart="28.57" departLane="best" from="791820702#0" to="791820730"/>
    <trip id="veh43" type="veh_passenger" depart="29.96" departLane="best" from="885305675#1" to="797777131#4"/>
    <trip id="veh44" type="veh_passenger" depart="30.66" departLane="best" departSpeed="max" from="827866597#0" to="817147795#1"/>
    <trip id="veh45" type="veh_passenger" depart="31.35" departLane="best" departSpeed="max" from="-348699609#3" to="798001346"/>
    <trip id="veh46" type="veh_passenger" depart="32.05" departLane="best" departSpeed="max" from="505059836" to="797777131#4"/>
    <trip id="veh47" type="veh_passenger" depart="32.75" departLane="best" departSpeed="max" from="-817147794" to="798001345#4"/>
    <trip id="veh48" type="veh_passenger" depart="33.44" departLane="best" departSpeed="max" from="122198594#0" to="827866599#2"/>
    <trip id="veh49" type="veh_passenger" depart="34.14" departLane="best" departSpeed="max" from="794261155#0" to="505059835"/>
    <trip id="veh50" type="veh_passenger" depart="34.84" departLane="best" departSpeed="max" from="350554156#0" to="148635030#1"/>
    <trip id="veh51" type="veh_passenger" depart="35.53" departLane="best" from="798001345#1" to="817147795#1"/>
    <trip id="veh52" type="veh_passenger" depart="36.23" departLane="best" departSpeed="max" from="-817147795#1" to="798001345#4"/>
    <trip id="veh53" type="veh_passenger" depart="36.93" departLane="best" departSpeed="max" from="505059836" to="-791820710"/>
    <trip id="veh54" type="veh_passenger" depart="37.62" departLane="best" departSpeed="max" from="527448985#0" to="797777131#4"/>
    <trip id="veh55" type="veh_passenger" depart="38.32" departLane="best" departSpeed="max" from="527448985#0" to="797777131#4"/>
    <trip id="veh56" type="veh_passenger" depart="39.02" departLane="best" from="-122198593#2" to="505059835"/>
    <trip id="veh57" type="veh_passenger" depart="39.71" departLane="best" departSpeed="max" from="-348699609#3" to="827861264#3"/>
    <trip id="veh58" type="veh_passenger" depart="40.41" departLane="best" departSpeed="max" from="794261155#0" to="817147793#1"/>
    <trip id="veh59" type="veh_passenger" depart="41.11" departLane="best" departSpeed="max" from="-817147795#1" to="-465393772#0"/>
    <trip id="veh60" type="veh_passenger" depart="41.80" departLane="best" departSpeed="max" from="794261155#0" to="827866599#2"/>
    <trip id="veh61" type="veh_passenger" depart="42.50" departLane="best" departSpeed="max" from="-791820730" to="794235948"/>
    <trip id="veh62" type="veh_passenger" depart="43.20" departLane="best" from="-791820702#0" to="817147791#2"/>
    <trip id="veh63" type="veh_passenger" depart="43.90" departLane="best" departSpeed="max" from="527448985#0" to="-791820710"/>
    <trip id="veh64" type="veh_passenger" depart="44.59" departLane="best" departSpeed="max" from="350554156#0" to="798001345#2"/>
    <trip id="veh65" type="veh_passenger" depart="45.29" departLane="best" departSpeed="max" from="-817147794" to="817147795#1"/>
    <trip id="veh66" type="veh_passenger" depart="45.99" departLane="best" departSpeed="max" from="122198594#0" to="348699609#3"/>
    <trip id="veh67" type="veh_passenger" depart="46.68" departLane="best" departSpeed="max" from="505059836" to="798001346"/>
    <trip id="veh68" type="veh_passenger" depart="47.38" departLane="best" departSpeed="max" from="-817147791#2" to="505059835"/>
    <trip id="veh69" type="veh_passenger" depart="48.08" departLane="best" from="885305675#0" to="798001345#4"/>
    <trip id="veh70" type="veh_passenger" depart="48.77" departLane="best" departSpeed="max" from="-791820730" to="348699609#3"/>
    <trip id="veh71" type="veh_passenger" depart="49.47" departLane="best" departSpeed="max" from="-817147795#1" to="798001345#4"/>
    <trip id="veh72" type="veh_passenger" depart="50.17" departLane="best" departSpeed="max" from="-817147791#2" to="348699609#3"/>
    <trip id="veh73" type="veh_passenger" depart="50.86" departLane="best" from="-791820702#1" to="798001345#4"/>
    <trip id="veh74" type="veh_passenger" depart="51.56" departLane="best" departSpeed="max" from="-817147791#2" to="827861264#3"/>
    <trip id="veh75" type="veh_passenger" depart="52.26" departLane="best" departSpeed="max" from="794261155#0" to="-527448985#0"/>
    <trip id="veh76" type="veh_passenger" depart="52.95" departLane="best" departSpeed="max" from="-817147794" to="798001345#4"/>
    <trip id="veh77" type="veh_passenger" depart="53.65" departLane="best" departSpeed="max" from="-817147791#2" to="-791820710"/>
    <trip id="veh78" type="veh_passenger" depart="54.35" departLane="best" from="827855967" to="798001345#4"/>
    <trip id="veh79" type="veh_passenger" depart="55.04" departLane="best" departSpeed="max" from="350554156#0" to="817147791#2"/>
    <trip id="veh80" type="veh_passenger" depart="55.74" departLane="best" departSpeed="max" from="791820710" to="348699609#3"/>
    <trip id="veh81" type="veh_passenger" depart="56.44" departLane="best" departSpeed="max" from="122198594#0" to="794235948"/>
    <trip id="veh82" type="veh_passenger" depart="57.13" departLane="best" departSpeed="max" from="521567035#0" to="798001345#4"/>
    <trip id="veh83" type="veh_passenger" depart="57.83" departLane="best" departSpeed="max" from="827866597#0" to="-527448985#0"/>
    <trip id="veh84" type="veh_passenger" depart="58.53" departLane="best" departSpeed="max" from="122198593#0" to="505059835"/>
    <trip id="veh85" type="veh_passenger" depart="59.22" departLane="best" departSpeed="max" from="794261155#0" to="505059835"/>
    <trip id="veh86" type="veh_passenger" depart="59.92" departLane="best" departSpeed="max" from="-817147791#2" to="794235948"/>
    <trip id="veh87" type="veh_passenger" depart="60.62" departLane="best" departSpeed="max" from="122198594#0" to="505059835"/>
    <trip id="veh88" type="veh_passenger" depart="61.31" departLane="best" departSpeed="max" from="122198594#0" to="817147795#1"/>
    <trip id="veh89" type="veh_passenger" depart="62.01" departLane="best" departSpeed="max" from="505059836" to="-347138338"/>
    <trip id="veh90" type="veh_passenger" depart="62.71" departLane="best" from="885305676" to="817147793#1"/>
    <trip id="veh91" type="veh_passenger" depart="63.40" departLane="best" departSpeed="max" from="791820710" to="-827855963#1"/>
    <trip id="veh92" type="veh_passenger" depart="64.10" departLane="best" departSpeed="max" from="350554156#0" to="348699609#3"/>
    <trip id="veh93" type="veh_passenger" depart="64.80" departLane="best" departSpeed="max" from="122198593#0" to="-465393772#2"/>
    <trip id="veh94" type="veh_passenger" depart="65.49" departLane="best" departSpeed="max" from="122198593#0" to="827866599#2"/>
    <trip id="veh95" type="veh_passenger" depart="66.19" departLane="best" departSpeed="max" from="-817147794" to="817147791#2"/>
    <trip id="veh96" type="veh_passenger" depart="66.89" departLane="best" departSpeed="max" from="122198594#0" to="791820730"/>
    <trip id="veh97" type="veh_passenger" depart="67.58" departLane="best" departSpeed="max" from="827866597#0" to="885305675#0"/>
    <trip id="veh98" type="veh_passenger" depart="68.28" departLane="best" departSpeed="max" from="505059836" to="798001346"/>
    <trip id="veh99" type="veh_passenger" depart="68.98" departLane="best" departSpeed="max" from="-794235948" to="505059835"/>
    <trip id="veh100" type="veh_passenger" depart="69.67" departLane="best" departSpeed="max" from="827866597#0" to="798001345#4"/>
    <trip id="veh101" type="veh_passenger" depart="70.37" departLane="best" departSpeed="max" from="505059836" to="817147791#2"/>
    <trip id="veh102" type="veh_passenger" depart="71.07" departLane="best" departSpeed="max" from="-348699609#3" to="798001345#4"/>
    <trip id="veh103" type="veh_passenger" depart="71.77" departLane="best" departSpeed="max" from="350554156#0" to="817147795#1"/>
    <trip id="veh104" type="veh_passenger" depart="72.46" departLane="best" departSpeed="max" from="-794235948" to="827866599#2"/>
    <trip id="veh105" type="veh_passenger" depart="73.16" departLane="best" departSpeed="max" from="-791820730" to="348699609#3"/>
    <trip id="veh106" type="veh_passenger" depart="73.86" departLane="best" departSpeed="max" from="505059836" to="798001345#4"/>
    <trip id="veh107" type="veh_passenger" depart="74.55" departLane="best" departSpeed="max" from="-817147794" to="-791820710"/>
    <trip id="veh108" type="veh_passenger" depart="75.25" departLane="best" departSpeed="max" from="794261155#0" to="505059835"/>
    <trip id="veh109" type="veh_passenger" depart="75.95" departLane="best" departSpeed="max" from="505059836" to="798001345#4"/>
    <trip id="veh110" type="veh_passenger" depart="76.64" departLane="best" departSpeed="max" from="122198594#0" to="798001345#4"/>
    <trip id="veh111" type="veh_passenger" depart="77.34" departLane="best" from="419978143#1" to="827861264#3"/>
    <trip id="veh112" type="veh_passenger" depart="78.04" departLane="best" departSpeed="max" from="-817147791#2" to="798001346"/>
    <trip id="veh113" type="veh_passenger" depart="78.73" departLane="best" departSpeed="max" from="-817147794" to="791820730"/>
    <trip id="veh114" type="veh_passenger" depart="79.43" departLane="best" departSpeed="max" from="-817147795#1" to="817147791#2"/>
    <trip id="veh115" type="veh_passenger" depart="80.13" departLane="best" from="-791820703" to="794235948"/>
    <trip id="veh116" type="veh_passenger" depart="80.82" departLane="best" from="885305675#3" to="885305675#0"/>
    <trip id="veh117" type="veh_passenger" depart="81.52" departLane="best" from="-791820703" to="348699609#3"/>
    <trip id="veh118" type="veh_passenger" depart="82.22" departLane="best" departSpeed="max" from="794261155#0" to="817147795#1"/>
    <trip id="veh119" type="veh_passenger" depart="82.91" departLane="best" departSpeed="max" from="122198593#0" to="-791820710"/>
    <trip id="veh120" type="veh_passenger" depart="83.61" departLane="best" departSpeed="max" from="791820710" to="798001346"/>
    <trip id="veh121" type="veh_passenger" depart="84.31" departLane="best" departSpeed="max" from="505059836" to="827866599#2"/>
    <trip id="veh122" type="veh_passenger" depart="85.00" departLane="best" departSpeed="max" from="505059836" to="-122198593#1"/>
    <trip id="veh123" type="veh_passenger" depart="85.70" departLane="best" departSpeed="max" from="791820710" to="505059835"/>
    <trip id="veh124" type="veh_passenger" depart="86.40" departLane="best" departSpeed="max" from="505059836" to="827861264#3"/>
    <trip id="veh125" type="veh_passenger" depart="87.09" departLane="best" departSpeed="max" from="-794235948" to="-791820710"/>
    <trip id="veh126" type="veh_passenger" depart="87.79" departLane="best" departSpeed="max" from="-791820730" to="798001345#4"/>
    <trip id="veh127" type="veh_passenger" depart="88.49" departLane="best" departSpeed="max" from="-817147794" to="798001345#4"/>
    <trip id="veh128" type="veh_passenger" depart="89.18" departLane="best" departSpeed="max" from="521567035#0" to="348699609#3"/>
    <trip id="veh129" type="veh_passenger" depart="89.88" departLane="best" departSpeed="max" from="350554156#0" to="827861264#3"/>
    <trip id="veh130" type="veh_passenger" depart="90.58" departLane="best" departSpeed="max" from="791820710" to="-527448985#0"/>
    <trip id="veh131" type="veh_passenger" depart="91.27" departLane="best" departSpeed="max" from="122198594#0" to="505059835"/>
    <trip id="veh132" type="veh_passenger" depart="91.97" departLane="best" from="-347138338" to="817147791#2"/>
    <trip id="veh133" type="veh_passenger" depart="92.67" departLane="best" departSpeed="max" from="527448985#0" to="798001345#4"/>
    <trip id="veh134" type="veh_passenger" depart="93.36" departLane="best" departSpeed="max" from="122198594#0" to="-122198593#1"/>
    <trip id="veh135" type="veh_passenger" depart="94.06" departLane="best" from="-791820709" to="817147795#1"/>
    <trip id="veh136" type="veh_passenger" depart="94.76" departLane="best" departSpeed="max" from="794261155#0" to="798001345#1"/>
    <trip id="veh137" type="veh_passenger" depart="95.45" departLane="best" departSpeed="max" from="791820710" to="798001345#4"/>
    <trip id="veh138" type="veh_passenger" depart="96.15" departLane="best" departSpeed="max" from="-794235948" to="-791820710"/>
    <trip id="veh139" type="veh_passenger" depart="96.85" departLane="best" departSpeed="max" from="-817147795#1" to="827861264#3"/>
    <trip id="veh140" type="veh_passenger" depart="97.54" departLane="best" from="791820709" to="817147795#1"/>
    <trip id="veh141" type="veh_passenger" depart="98.24" departLane="best" departSpeed="max" from="794261155#0" to="348699609#3"/>
    <trip id="veh142" type="veh_passenger" depart="98.94" departLane="best" departSpeed="max" from="-817147794" to="-527448985#0"/>
    <trip id="veh143" type="veh_passenger" depart="99.64" departLane="best" departSpeed="max" from="527448985#0" to="817147795#1"/>
    <trip id="veh144" type="veh_passenger" depart="100.33" departLane="best" departSpeed="max" from="122198594#0" to="798001345#4"/>
    <trip id="veh145" type="veh_passenger" depart="101.03" departLane="best" departSpeed="max" from="-794235948" to="827861264#3"/>
    <trip id="veh146" type="veh_passenger" depart="101.73" departLane="best" departSpeed="max" from="794261155#0" to="827866599#2"/>
    <trip id="veh147" type="veh_passenger" depart="102.42" departLane="best" departSpeed="max" from="791820710" to="817147795#1"/>
    <trip id="veh148" type="veh_passenger" depart="103.12" departLane="best" departSpeed="max" from="-348699609#3" to="798001346"/>
    <trip id="veh149" type="veh_passenger" depart="103.82" departLane="best" departSpeed="max" from="-817147795#1" to="827861264#3"/>
    <trip id="veh150" type="veh_passenger" depart="104.51" departLane="best" departSpeed="max" from="791820710" to="817147795#1"/>
    <trip id="veh151" type="veh_passenger" depart="105.21" departLane="best" departSpeed="max" from="791820710" to="505059835"/>
    <trip id="veh152" type="veh_passenger" depart="105.91" departLane="best" departSpeed="max" from="527448985#0" to="-527448985#2"/>
    <trip id="veh153" type="veh_passenger" depart="106.60" departLane="best" departSpeed="max" from="794261155#0" to="817147795#1"/>
    <trip id="veh154" type="veh_passenger" depart="107.30" departLane="best" departSpeed="max" from="-817147791#2" to="817147793#1"/>
    <trip id="veh155" type="veh_passenger" depart="108.00" departLane="best" from="148635030#1" to="505059835"/>
    <trip id="veh156" type="veh_passenger" depart="108.69" departLane="best" from="791820707" to="348699609#3"/>
    <trip id="veh157" type="veh_passenger" depart="109.39" departLane="best" departSpeed="max" from="827866597#0" to="505059835"/>
    <trip id="veh158" type="veh_passenger" depart="110.09" departLane="best" departSpeed="max" from="505059836" to="791820730"/>
    <trip id="veh159" type="veh_passenger" depart="110.78" departLane="best" departSpeed="max" from="827866597#0" to="797777131#4"/>
    <trip id="veh160" type="veh_passenger" depart="111.48" departLane="best" departSpeed="max" from="827866597#0" to="-791820710"/>
    <trip id="veh161" type="veh_passenger" depart="112.18" departLane="best" departSpeed="max" from="827866597#0" to="148635030#1"/>
    <trip id="veh162" type="veh_passenger" depart="112.87" departLane="best" departSpeed="max" from="827866597#0" to="505059835"/>
    <trip id="veh163" type="veh_passenger" depart="113.57" departLane="best" departSpeed="max" from="521567035#0" to="505059835"/>
    <trip id="veh164" type="veh_passenger" depart="114.27" departLane="best" departSpeed="max" from="505059836" to="797777131#4"/>
    <trip id="veh165" type="veh_passenger" depart="114.96" departLane="best" departSpeed="max" from="122198593#0" to="798001345#4"/>
    <trip id="veh166" type="veh_passenger" depart="115.66" departLane="best" departSpeed="max" from="-817147794" to="798001346"/>
    <trip id="veh167" type="veh_passenger" depart="116.36" departLane="best" from="-122198593#3" to="827861264#3"/>
    <trip id="veh168" type="veh_passenger" depart="117.05" departLane="best" departSpeed="max" from="505059836" to="798001346"/>
    <trip id="veh169" type="veh_passenger" depart="117.75" departLane="best" departSpeed="max" from="527448985#0" to="798001345#4"/>
    <trip id="veh170" type="veh_passenger" depart="118.45" departLane="best" departSpeed="max" from="122198593#0" to="-527448985#0"/>
    <trip id="veh171" type="veh_passenger" depart="119.14" departLane="best" departSpeed="max" from="521567035#0" to="505059835"/>
    <trip id="veh172" type="veh_passenger" depart="119.84" departLane="best" departSpeed="max" from="-817147795#1" to="791820730"/>
    <trip id="veh173" type="veh_passenger" depart="120.54" departLane="best" departSpeed="max" from="122198593#0" to="505059835"/>
    <trip id="veh174" type="veh_passenger" depart="121.23" departLane="best" departSpeed="max" from="827866597#0" to="798001345#4"/>
    <trip id="veh175" type="veh_passenger" depart="121.93" departLane="best" departSpeed="max" from="-817147795#1" to="798001345#2"/>
    <trip id="veh176" type="veh_passenger" depart="122.63" departLane="best" from="-122198593#2" to="505059835"/>
    <trip id="veh177" type="veh_passenger" depart="123.32" departLane="best" departSpeed="max" from="122198594#0" to="798001345#4"/>
    <trip id="veh178" type="veh_passenger" depart="124.02" departLane="best" departSpeed="max" from="505059836" to="794235948"/>
    <trip id="veh179" type="veh_passenger" depart="124.72" departLane="best" departSpeed="max" from="122198594#0" to="348699609#3"/>
    <trip id="veh180" type="veh_passenger" depart="125.41" departLane="best" departSpeed="max" from="350554156#0" to="827861264#3"/>
    <trip id="veh181" type="veh_passenger" depart="126.11" departLane="best" from="791820709" to="-827855966"/>
    <trip id="veh182" type="veh_passenger" depart="126.81" departLane="best" departSpeed="max" from="-791820730" to="797777131#4"/>
    <trip id="veh183" type="veh_passenger" depart="127.51" departLane="best" departSpeed="max" from="791820710" to="817147791#2"/>
    <trip id="veh184" type="veh_passenger" depart="128.20" departLane="best" departSpeed="max" from="505059836" to="348699609#3"/>
    <trip id="veh185" type="veh_passenger" depart="128.90" departLane="best" departSpeed="max" from="-817147791#2" to="-122198593#1"/>
    <trip id="veh186" type="veh_passenger" depart="129.60" departLane="best" departSpeed="max" from="-817147794" to="794235948"/>
    <trip id="veh187" type="veh_passenger" depart="130.29" departLane="best" from="794235947#0" to="-527448985#0"/>
    <trip id="veh188" type="veh_passenger" depart="130.99" departLane="best" departSpeed="max" from="122198594#0" to="798001345#4"/>
    <trip id="veh189" type="veh_passenger" depart="131.69" departLane="best" departSpeed="max" from="-817147791#2" to="798001346"/>
    <trip id="veh190" type="veh_passenger" depart="132.38" departLane="best" departSpeed="max" from="350554156#0" to="505059835"/>
    <trip id="veh191" type="veh_passenger" depart="133.08" departLane="best" departSpeed="max" from="505059836" to="-122198593#1"/>
    <trip id="veh192" type="veh_passenger" depart="133.78" departLane="best" departSpeed="max" from="527448985#0" to="817147791#2"/>
    <trip id="veh193" type="veh_passenger" depart="134.47" departLane="best" departSpeed="max" from="-794235948" to="827866599#2"/>
    <trip id="veh194" type="veh_passenger" depart="135.17" departLane="best" from="350554156#1" to="-148635030#0"/>
    <trip id="veh195" type="veh_passenger" depart="135.87" departLane="best" departSpeed="max" from="-817147794" to="817147795#1"/>
    <trip id="veh196" type="veh_passenger" depart="136.56" departLane="best" departSpeed="max" from="122198594#0" to="817147793#1"/>
    <trip id="veh197" type="veh_passenger" depart="137.26" departLane="best" departSpeed="max" from="505059836" to="827866599#2"/>
    <trip id="veh198" type="veh_passenger" depart="137.96" departLane="best" departSpeed="max" from="505059836" to="827866599#2"/>
    <trip id="veh199" type="veh_passenger" depart="138.65" departLane="best" departSpeed="max" from="521567035#0" to="797777131#4"/>
    <trip id="veh200" type="veh_passenger" depart="139.35" departLane="best" departSpeed="max" from="791820710" to="798001345#2"/>
    <trip id="veh201" type="veh_passenger" depart="140.05" departLane="best" departSpeed="max" from="794261155#0" to="817147791#2"/>
    <trip id="veh202" type="veh_passenger" depart="140.74" departLane="best" departSpeed="max" from="350554156#0" to="505059835"/>
    <trip id="veh203" type="veh_passenger" depart="141.44" departLane="best" departSpeed="max" from="-817147794" to="798001345#4"/>
    <trip id="veh204" type="veh_passenger" depart="142.14" departLane="best" departSpeed="max" from="527448985#0" to="797777131#4"/>
    <trip id="veh205" type="veh_passenger" depart="142.83" departLane="best" departSpeed="max" from="-791820730" to="505059835"/>
    <trip id="veh206" type="veh_passenger" depart="143.53" departLane="best" departSpeed="max" from="-817147794" to="505059835"/>
    <trip id="veh207" type="veh_passenger" depart="144.23" departLane="best" departSpeed="max" from="505059836" to="-791820710"/>
    <trip id="veh208" type="veh_passenger" depart="144.92" departLane="best" departSpeed="max" from="-817147791#2" to="798001346"/>
    <trip id="veh209" type="veh_passenger" depart="145.62" departLane="best" departSpeed="max" from="521567035#0" to="-527448985#0"/>
    <trip id="veh210" type="veh_passenger" depart="146.32" departLane="best" departSpeed="max" from="122198594#0" to="348699609#3"/>
    <trip id="veh211" type="veh_passenger" depart="147.01" departLane="best" departSpeed="max" from="122198594#0" to="827861264#3"/>
    <trip id="veh212" type="veh_passenger" depart="147.71" departLane="best" departSpeed="max" from="505059836" to="798001346"/>
    <trip id="veh213" type="veh_passenger" depart="148.41" departLane="best" departSpeed="max" from="794261155#0" to="817147791#2"/>
    <trip id="veh214" type="veh_passenger" depart="149.10" departLane="best" departSpeed="max" from="122198593#0" to="817147791#2"/>
    <trip id="veh215" type="veh_passenger" depart="149.80" departLane="best" departSpeed="max" from="794261155#0" to="827866599#2"/>
    <trip id="veh216" type="veh_passenger" depart="150.50" departLane="best" departSpeed="max" from="122198594#0" to="817147791#2"/>
    <trip id="veh217" type="veh_passenger" depart="151.19" departLane="best" departSpeed="max" from="505059836" to="798001345#4"/>
    <trip id="veh218" type="veh_passenger" depart="151.89" departLane="best" departSpeed="max" from="-817147791#2" to="348699609#3"/>
    <trip id="veh219" type="veh_passenger" depart="152.59" departLane="best" departSpeed="max" from="122198594#0" to="-122198593#1"/>
    <trip id="veh220" type="veh_passenger" depart="153.28" departLane="best" departSpeed="max" from="-817147795#1" to="798001345#4"/>
    <trip id="veh221" type="veh_passenger" depart="153.98" departLane="best" departSpeed="max" from="350554156#0" to="-791820710"/>
    <trip id="veh222" type="veh_passenger" depart="154.68" departLane="best" departSpeed="max" from="505059836" to="-122198593#1"/>
    <trip id="veh223" type="veh_passenger" depart="155.38" departLane="best" departSpeed="max" from="122198593#0" to="798001345#4"/>
    <trip id="veh224" type="veh_passenger" depart="156.07" departLane="best" departSpeed="max" from="-348699609#3" to="798001345#4"/>