<?xml version="1.0" encoding="UTF-8"?>

<!-- generated on 2021-06-28 22:29:47 by Eclipse SUMO GUI Version 1.9.1
-->

<configuration xmlns:xsi="http://www.w3.org/2001/XMLSchema-instance" xsi:noNamespaceSchemaLocation="http://sumo.dlr.de/xsd/sumoConfiguration.xsd">

    <input>
        <net-file value="C:\Users\23368\Desktop\sumoTest\sumot5.net.xml"/>
        <route-files value="C:\Users\23368\Desktop\sumoTest\sumot5.rou.xml"/>
    </input>
<gui_only>
<start value="t"/>
<quit-on-end value="e"/>
</gui_only>

</configuration>
