<?xml version="1.0" encoding="UTF-8"?>

<!-- generated on 2021-06-30 11:58:08 by Eclipse SUMO netedit Version 1.9.1
<configuration xmlns:xsi="http://www.w3.org/2001/XMLSchema-instance" xsi:noNamespaceSchemaLocation="http://sumo.dlr.de/xsd/netconvertConfiguration.xsd">

    <output>
        <output-file value="C:\Users\23368\Desktop\sumoTest\sumot6.net.xml"/>
    </output>

    <processing>
        <offset.disable-normalization value="true"/>
    </processing>

    <junctions>
        <no-turnarounds value="true"/>
    </junctions>

    <report>
        <aggregate-warnings value="5"/>
    </report>

</configuration>
-->

<net version="1.9" junctionCornerDetail="5" limitTurnSpeed="5.50" xmlns:xsi="http://www.w3.org/2001/XMLSchema-instance" xsi:noNamespaceSchemaLocation="http://sumo.dlr.de/xsd/net_file.xsd">

    <location netOffset="0.00,0.00" convBoundary="0.00,-100.00,200.00,100.00" origBoundary="10000000000.00,10000000000.00,-10000000000.00,-10000000000.00" projParameter="!"/>

    <edge id=":2_0" function="internal">
        <lane id=":2_0_0" index="0" speed="13.89" length="11.20" shape="98.40,4.00 98.40,-7.20"/>
    </edge>
    <edge id=":2_1" function="internal">
        <lane id=":2_1_0" index="0" speed="6.51" length="9.03" shape="98.40,4.00 98.75,1.55 99.80,-0.20 101.55,-1.25 104.00,-1.60"/>
    </edge>
    <edge id=":2_2" function="internal">
        <lane id=":2_2_0" index="0" speed="6.51" length="9.03" shape="92.80,-1.60 95.25,-1.95 97.00,-3.00 98.05,-4.75 98.40,-7.20"/>
    </edge>
    <edge id=":2_3" function="internal">
        <lane id=":2_3_0" index="0" speed="13.89" length="11.20" shape="92.80,-1.60 104.00,-1.60"/>
    </edge>

    <edge id="gneE0" from="1" to="2" priority="-1">
        <lane id="gneE0_0" index="0" speed="13.89" length="92.80" shape="0.00,-1.60 92.80,-1.60"/>
    </edge>
    <edge id="gneE1" from="2" to="3" priority="-1">
        <lane id="gneE1_0" index="0" speed="13.89" length="96.00" shape="104.00,-1.60 200.00,-1.60"/>
    </edge>
    <edge id="gneE2" from="5" to="2" priority="-1">
        <lane id="gneE2_0" index="0" speed="13.89" length="96.00" shape="98.40,100.00 98.40,4.00"/>
    </edge>
    <edge id="gneE3" from="2" to="4" priority="-1">
        <lane id="gneE3_0" index="0" speed="13.89" length="92.80" shape="98.40,-7.20 98.40,-100.00"/>
    </edge>

    <tlLogic id="2" type="static" programID="0" offset="0">
        <phase duration="42" state="GGrr"/>
        <phase duration="3"  state="yyrr"/>
        <phase duration="42" state="rrGG"/>
        <phase duration="3"  state="rryy"/>
    </tlLogic>

    <junction id="1" type="dead_end" x="0.00" y="0.00" incLanes="" intLanes="" shape="0.00,0.00 0.00,-3.20"/>
    <junction id="2" type="traffic_light" x="100.00" y="0.00" incLanes="gneE2_0 gneE0_0" intLanes=":2_0_0 :2_1_0 :2_2_0 :2_3_0" shape="96.80,4.00 100.00,4.00 100.44,1.78 101.00,1.00 101.78,0.44 102.78,0.11 104.00,0.00 104.00,-3.20 101.78,-3.64 101.00,-4.20 100.44,-4.98 100.11,-5.98 100.00,-7.20 96.80,-7.20 96.36,-4.98 95.80,-4.20 95.02,-3.64 94.02,-3.31 92.80,-3.20 92.80,0.00 95.02,0.44 95.80,1.00 96.36,1.78 96.69,2.78">
        <request index="0" response="1100" foes="1100" cont="0"/>
        <request index="1" response="1000" foes="1000" cont="0"/>
        <request index="2" response="0000" foes="0001" cont="0"/>
        <request index="3" response="0000" foes="0011" cont="0"/>
    </junction>
    <junction id="3" type="dead_end" x="200.00" y="0.00" incLanes="gneE1_0" intLanes="" shape="200.00,-3.20 200.00,0.00"/>
    <junction id="4" type="dead_end" x="100.00" y="-100.00" incLanes="gneE3_0" intLanes="" shape="96.80,-100.00 100.00,-100.00"/>
    <junction id="5" type="dead_end" x="100.00" y="100.00" incLanes="" intLanes="" shape="100.00,100.00 96.80,100.00"/>

    <connection from="gneE0" to="gneE3" fromLane="0" toLane="0" via=":2_2_0" tl="2" linkIndex="2" dir="r" state="O"/>
    <connection from="gneE0" to="gneE1" fromLane="0" toLane="0" via=":2_3_0" tl="2" linkIndex="3" dir="s" state="O"/>
    <connection from="gneE2" to="gneE3" fromLane="0" toLane="0" via=":2_0_0" tl="2" linkIndex="0" dir="s" state="o"/>
    <connection from="gneE2" to="gneE1" fromLane="0" toLane="0" via=":2_1_0" tl="2" linkIndex="1" dir="l" state="o"/>

    <connection from=":2_0" to="gneE3" fromLane="0" toLane="0" dir="s" state="M"/>
    <connection from=":2_1" to="gneE1" fromLane="0" toLane="0" dir="l" state="M"/>
    <connection from=":2_2" to="gneE3" fromLane="0" toLane="0" dir="r" state="M"/>
    <connection from=":2_3" to="gneE1" fromLane="0" toLane="0" dir="s" state="M"/>

</net>
