<?xml version="1.0" encoding="UTF-8"?>

<!-- generated on 2021-06-30 11:58:14 by Eclipse SUMO netedit Version 1.9.1
<configuration xmlns:xsi="http://www.w3.org/2001/XMLSchema-instance" xsi:noNamespaceSchemaLocation="http://sumo.dlr.de/xsd/netconvertConfiguration.xsd">

    <output>
        <output-file value="C:\Users\23368\Desktop\sumoTest\sumot6.net.xml"/>
    </output>

    <processing>
        <offset.disable-normalization value="true"/>
    </processing>

    <junctions>
        <no-turnarounds value="true"/>
    </junctions>

    <netedit>
        <route-files value="C:\Users\23368\Desktop\sumoTest\sumot6.rou.xml"/>
    </netedit>

    <report>
        <aggregate-warnings value="5"/>
    </report>

</configuration>
-->

<routes xmlns:xsi="http://www.w3.org/2001/XMLSchema-instance" xsi:noNamespaceSchemaLocation="http://sumo.dlr.de/xsd/routes_file.xsd">
    <flow id="flow_0" begin="0.00" from="gneE0" to="gneE1" end="3600.00" number="1800"/>
    <flow id="flow_1" begin="0.00" from="gneE2" to="gneE3" end="40" number="20"/>
</routes>
